Initialize SIGNATURE TABLE
ST_SET: 1
ST_WAY: 256
ST_TAG_BIT: 16
ST_TAG_MASK: ffff

Initialize PATTERN TABLE
PT_SET: 512
PT_WAY: 4
SIG_DELTA_BIT: 7
C_SIG_BIT: 4
C_DELTA_BIT: 4

Initialize PREFETCH FILTER
FILTER_SET: 1024

*** ChampSim Multicore Out-of-Order Simulator ***

Warmup Instructions: 50000000
Simulation Instructions: 50000000
Number of CPUs: 1
LLC sets: 2048
LLC ways: 16
Off-chip DRAM Size: 4096 MB Channels: 1 Width: 64-bit Data Rate: 3200 MT/s

CPU 0 runs /home/xubinfang/Desktop/ChampSim/dpc3_traces/client_002.champsimtrace.xz
CPU 0 Bimodal branch predictor
CPU 0 L1D next line prefetcher
Heartbeat CPU 0 instructions: 10000000 cycles: 3405198 heartbeat IPC: 2.93669 cumulative IPC: 2.93669 (Simulation time: 0 hr 0 min 34 sec) 
Heartbeat CPU 0 instructions: 20000002 cycles: 6861126 heartbeat IPC: 2.89358 cumulative IPC: 2.91497 (Simulation time: 0 hr 1 min 6 sec) 
Heartbeat CPU 0 instructions: 30000001 cycles: 10294186 heartbeat IPC: 2.91285 cumulative IPC: 2.91427 (Simulation time: 0 hr 1 min 39 sec) 
Heartbeat CPU 0 instructions: 40000002 cycles: 13727321 heartbeat IPC: 2.91279 cumulative IPC: 2.9139 (Simulation time: 0 hr 2 min 6 sec) 
Heartbeat CPU 0 instructions: 50000002 cycles: 17168315 heartbeat IPC: 2.90614 cumulative IPC: 2.91234 (Simulation time: 0 hr 2 min 32 sec) 

Warmup complete CPU 0 instructions: 50000002 cycles: 17168315 (Simulation time: 0 hr 2 min 32 sec) 

Heartbeat CPU 0 instructions: 60000002 cycles: 24777572 heartbeat IPC: 1.31419 cumulative IPC: 1.31419 (Simulation time: 0 hr 2 min 54 sec) 
Heartbeat CPU 0 instructions: 70000000 cycles: 32506046 heartbeat IPC: 1.29392 cumulative IPC: 1.30397 (Simulation time: 0 hr 3 min 15 sec) 
Heartbeat CPU 0 instructions: 80000003 cycles: 40014929 heartbeat IPC: 1.33176 cumulative IPC: 1.3131 (Simulation time: 0 hr 3 min 36 sec) 
Heartbeat CPU 0 instructions: 90000001 cycles: 48093705 heartbeat IPC: 1.23781 cumulative IPC: 1.29344 (Simulation time: 0 hr 3 min 58 sec) 
Heartbeat CPU 0 instructions: 100000003 cycles: 55724377 heartbeat IPC: 1.3105 cumulative IPC: 1.29681 (Simulation time: 0 hr 4 min 20 sec) 
Finished CPU 0 instructions: 50000001 cycles: 38556062 cumulative IPC: 1.29681 (Simulation time: 0 hr 4 min 20 sec) 

ChampSim completed all CPUs

Region of Interest Statistics

CPU 0 cumulative IPC: 1.29681 instructions: 50000001 cycles: 38556062
L1D TOTAL     ACCESS:   20479285  HIT:   20139532  MISS:     339753
L1D LOAD      ACCESS:    7148897  HIT:    7034591  MISS:     114306
L1D RFO       ACCESS:    6458688  HIT:    6368946  MISS:      89742
L1D PREFETCH  ACCESS:    6871700  HIT:    6735995  MISS:     135705
L1D WRITEBACK ACCESS:          0  HIT:          0  MISS:          0
L1D PREFETCH  REQUESTED:    7159568  ISSUED:    6944476  USEFUL:      56605  USELESS:      79243
L1D AVERAGE MISS LATENCY: 47.1887 cycles
L1I TOTAL     ACCESS:    9635049  HIT:    9168083  MISS:     466966
L1I LOAD      ACCESS:    9635049  HIT:    9168083  MISS:     466966
L1I RFO       ACCESS:          0  HIT:          0  MISS:          0
L1I PREFETCH  ACCESS:          0  HIT:          0  MISS:          0
L1I WRITEBACK ACCESS:          0  HIT:          0  MISS:          0
L1I PREFETCH  REQUESTED:          0  ISSUED:          0  USEFUL:          0  USELESS:          0
L1I AVERAGE MISS LATENCY: 20.766 cycles
L2C TOTAL     ACCESS:    1298594  HIT:    1060604  MISS:     237990
L2C LOAD      ACCESS:     573079  HIT:     449717  MISS:     123362
L2C RFO       ACCESS:      88878  HIT:      24187  MISS:      64691
L2C PREFETCH  ACCESS:     511070  HIT:     461489  MISS:      49581
L2C WRITEBACK ACCESS:     125567  HIT:     125211  MISS:        356
L2C PREFETCH  REQUESTED:     707225  ISSUED:     707225  USEFUL:       5307  USELESS:      44203
L2C AVERAGE MISS LATENCY: 60.4646 cycles
LLC TOTAL     ACCESS:     549829  HIT:     490021  MISS:      59808
LLC LOAD      ACCESS:     123334  HIT:     116854  MISS:       6480
LLC RFO       ACCESS:      64691  HIT:      35082  MISS:      29609
LLC PREFETCH  ACCESS:     279165  HIT:     255685  MISS:      23480
LLC WRITEBACK ACCESS:      82639  HIT:      82400  MISS:        239
LLC PREFETCH  REQUESTED:          0  ISSUED:          0  USEFUL:       6129  USELESS:      16660
LLC AVERAGE MISS LATENCY: 169.131 cycles
Major fault: 0 Minor fault: 3091
CPU 0 L1D next line prefetcher final stats

DRAM Statistics
 CHANNEL 0
 RQ ROW_BUFFER_HIT:      22365  ROW_BUFFER_MISS:      37204
 DBUS_CONGESTED:      42000
 WQ ROW_BUFFER_HIT:       9743  ROW_BUFFER_MISS:      27187  FULL:          0

 AVG_CONGESTED_CYCLE: 6

CPU 0 Branch Prediction Accuracy: 94.6086% MPKI: 10.2416 Average ROB Occupancy at Mispredict: 46.3292

Branch types
NOT_BRANCH: 40501603 81.0032%
BRANCH_DIRECT_JUMP: 517397 1.03479%
BRANCH_INDIRECT: 112347 0.224694%
BRANCH_CONDITIONAL: 6698736 13.3975%
BRANCH_DIRECT_CALL: 960974 1.92195%
BRANCH_INDIRECT_CALL: 123707 0.247414%
BRANCH_RETURN: 1084929 2.16986%
BRANCH_OTHER: 0 0%

