Initialize SIGNATURE TABLE
ST_SET: 1
ST_WAY: 256
ST_TAG_BIT: 16
ST_TAG_MASK: ffff

Initialize PATTERN TABLE
PT_SET: 512
PT_WAY: 4
SIG_DELTA_BIT: 7
C_SIG_BIT: 4
C_DELTA_BIT: 4

Initialize PREFETCH FILTER
FILTER_SET: 1024

*** ChampSim Multicore Out-of-Order Simulator ***

Warmup Instructions: 50000000
Simulation Instructions: 50000000
Number of CPUs: 1
LLC sets: 2048
LLC ways: 16
Off-chip DRAM Size: 4096 MB Channels: 1 Width: 64-bit Data Rate: 3200 MT/s

CPU 0 runs /home/xubinfang/Desktop/ChampSim/dpc3_traces/client_006.champsimtrace.xz
CPU 0 Bimodal branch predictor
CPU 0 L1D next line prefetcher
Heartbeat CPU 0 instructions: 10000003 cycles: 4267704 heartbeat IPC: 2.34318 cumulative IPC: 2.34318 (Simulation time: 0 hr 0 min 39 sec) 
Heartbeat CPU 0 instructions: 20000000 cycles: 8308244 heartbeat IPC: 2.47492 cumulative IPC: 2.40725 (Simulation time: 0 hr 1 min 17 sec) 
Heartbeat CPU 0 instructions: 30000003 cycles: 11374156 heartbeat IPC: 3.26167 cumulative IPC: 2.63756 (Simulation time: 0 hr 1 min 49 sec) 
Heartbeat CPU 0 instructions: 40000000 cycles: 14721094 heartbeat IPC: 2.9878 cumulative IPC: 2.71719 (Simulation time: 0 hr 2 min 23 sec) 
Heartbeat CPU 0 instructions: 50000003 cycles: 18826296 heartbeat IPC: 2.43593 cumulative IPC: 2.65586 (Simulation time: 0 hr 3 min 0 sec) 

Warmup complete CPU 0 instructions: 50000003 cycles: 18826296 (Simulation time: 0 hr 3 min 0 sec) 

Heartbeat CPU 0 instructions: 60000001 cycles: 28891098 heartbeat IPC: 0.993561 cumulative IPC: 0.993561 (Simulation time: 0 hr 3 min 27 sec) 
Heartbeat CPU 0 instructions: 70000000 cycles: 40009300 heartbeat IPC: 0.899426 cumulative IPC: 0.944153 (Simulation time: 0 hr 3 min 59 sec) 
Heartbeat CPU 0 instructions: 80000002 cycles: 50793615 heartbeat IPC: 0.927273 cumulative IPC: 0.938458 (Simulation time: 0 hr 4 min 29 sec) 
Heartbeat CPU 0 instructions: 90000003 cycles: 60677308 heartbeat IPC: 1.01177 cumulative IPC: 0.955771 (Simulation time: 0 hr 4 min 55 sec) 
Heartbeat CPU 0 instructions: 100000001 cycles: 71263638 heartbeat IPC: 0.944614 cumulative IPC: 0.953519 (Simulation time: 0 hr 5 min 23 sec) 
Finished CPU 0 instructions: 50000002 cycles: 52437343 cumulative IPC: 0.953519 (Simulation time: 0 hr 5 min 23 sec) 

ChampSim completed all CPUs

Region of Interest Statistics

CPU 0 cumulative IPC: 0.953519 instructions: 50000002 cycles: 52437343
L1D TOTAL     ACCESS:   17847359  HIT:   17120342  MISS:     727017
L1D LOAD      ACCESS:    6970486  HIT:    6570973  MISS:     399513
L1D RFO       ACCESS:    4368451  HIT:    4325909  MISS:      42542
L1D PREFETCH  ACCESS:    6508422  HIT:    6223460  MISS:     284962
L1D WRITEBACK ACCESS:          0  HIT:          0  MISS:          0
L1D PREFETCH  REQUESTED:    7018068  ISSUED:    6831127  USEFUL:     123562  USELESS:     161273
L1D AVERAGE MISS LATENCY: 78.7158 cycles
L1I TOTAL     ACCESS:    8523932  HIT:    7837100  MISS:     686832
L1I LOAD      ACCESS:    8523932  HIT:    7837100  MISS:     686832
L1I RFO       ACCESS:          0  HIT:          0  MISS:          0
L1I PREFETCH  ACCESS:          0  HIT:          0  MISS:          0
L1I WRITEBACK ACCESS:          0  HIT:          0  MISS:          0
L1I PREFETCH  REQUESTED:          0  ISSUED:          0  USEFUL:          0  USELESS:          0
L1I AVERAGE MISS LATENCY: 20.2891 cycles
L2C TOTAL     ACCESS:    2524813  HIT:    1982573  MISS:     542240
L2C LOAD      ACCESS:    1022535  HIT:     748933  MISS:     273602
L2C RFO       ACCESS:      42292  HIT:      12450  MISS:      29842
L2C PREFETCH  ACCESS:    1284021  HIT:    1045915  MISS:     238106
L2C WRITEBACK ACCESS:     175965  HIT:     175275  MISS:        690
L2C PREFETCH  REQUESTED:    2540092  ISSUED:    2519574  USEFUL:       9833  USELESS:     227802
L2C AVERAGE MISS LATENCY: 106.409 cycles
LLC TOTAL     ACCESS:    1302736  HIT:     918040  MISS:     384696
LLC LOAD      ACCESS:     263425  HIT:     161627  MISS:     101798
LLC RFO       ACCESS:      29842  HIT:       4960  MISS:      24882
LLC PREFETCH  ACCESS:     875616  HIT:     618215  MISS:     257401
LLC WRITEBACK ACCESS:     133853  HIT:     133238  MISS:        615
LLC PREFETCH  REQUESTED:          0  ISSUED:          0  USEFUL:      49478  USELESS:     211230
LLC AVERAGE MISS LATENCY: 183.662 cycles
Major fault: 0 Minor fault: 10527
CPU 0 L1D next line prefetcher final stats

DRAM Statistics
 CHANNEL 0
 RQ ROW_BUFFER_HIT:      98526  ROW_BUFFER_MISS:     285538
 DBUS_CONGESTED:     222417
 WQ ROW_BUFFER_HIT:      21943  ROW_BUFFER_MISS:      92677  FULL:          0

 AVG_CONGESTED_CYCLE: 5

CPU 0 Branch Prediction Accuracy: 91.7566% MPKI: 14.1154 Average ROB Occupancy at Mispredict: 40.7462

Branch types
NOT_BRANCH: 41438074 82.8761%
BRANCH_DIRECT_JUMP: 413829 0.827658%
BRANCH_INDIRECT: 47058 0.094116%
BRANCH_CONDITIONAL: 6843840 13.6877%
BRANCH_DIRECT_CALL: 536885 1.07377%
BRANCH_INDIRECT_CALL: 90642 0.181284%
BRANCH_RETURN: 629329 1.25866%
BRANCH_OTHER: 0 0%

