Initialize SIGNATURE TABLE
ST_SET: 1
ST_WAY: 256
ST_TAG_BIT: 16
ST_TAG_MASK: ffff

Initialize PATTERN TABLE
PT_SET: 512
PT_WAY: 4
SIG_DELTA_BIT: 7
C_SIG_BIT: 4
C_DELTA_BIT: 4

Initialize PREFETCH FILTER
FILTER_SET: 1024

*** ChampSim Multicore Out-of-Order Simulator ***

Warmup Instructions: 50000000
Simulation Instructions: 50000000
Number of CPUs: 1
LLC sets: 2048
LLC ways: 16
Off-chip DRAM Size: 4096 MB Channels: 1 Width: 64-bit Data Rate: 3200 MT/s

CPU 0 runs /home/xubinfang/Desktop/ChampSim/dpc3_traces/client_008.champsimtrace.xz
CPU 0 Bimodal branch predictor
CPU 0 L1D next line prefetcher
Heartbeat CPU 0 instructions: 10000001 cycles: 3753952 heartbeat IPC: 2.66386 cumulative IPC: 2.66386 (Simulation time: 0 hr 0 min 39 sec) 
Heartbeat CPU 0 instructions: 20000001 cycles: 7529379 heartbeat IPC: 2.64871 cumulative IPC: 2.65626 (Simulation time: 0 hr 1 min 17 sec) 
Heartbeat CPU 0 instructions: 30000000 cycles: 11256310 heartbeat IPC: 2.68317 cumulative IPC: 2.66517 (Simulation time: 0 hr 1 min 55 sec) 
Heartbeat CPU 0 instructions: 40000002 cycles: 15049971 heartbeat IPC: 2.63598 cumulative IPC: 2.65781 (Simulation time: 0 hr 2 min 35 sec) 
Heartbeat CPU 0 instructions: 50000003 cycles: 18840695 heartbeat IPC: 2.63802 cumulative IPC: 2.65383 (Simulation time: 0 hr 3 min 14 sec) 

Warmup complete CPU 0 instructions: 50000003 cycles: 18840695 (Simulation time: 0 hr 3 min 14 sec) 

Heartbeat CPU 0 instructions: 60000000 cycles: 29463590 heartbeat IPC: 0.941363 cumulative IPC: 0.941363 (Simulation time: 0 hr 3 min 49 sec) 
Heartbeat CPU 0 instructions: 70000000 cycles: 39727993 heartbeat IPC: 0.974241 cumulative IPC: 0.95752 (Simulation time: 0 hr 4 min 26 sec) 
Heartbeat CPU 0 instructions: 80000001 cycles: 49367216 heartbeat IPC: 1.03743 cumulative IPC: 0.982752 (Simulation time: 0 hr 5 min 1 sec) 
Heartbeat CPU 0 instructions: 90000001 cycles: 57322776 heartbeat IPC: 1.25698 cumulative IPC: 1.03944 (Simulation time: 0 hr 5 min 32 sec) 
Heartbeat CPU 0 instructions: 100000001 cycles: 66247561 heartbeat IPC: 1.12048 cumulative IPC: 1.0547 (Simulation time: 0 hr 6 min 5 sec) 
Finished CPU 0 instructions: 50000002 cycles: 47406867 cumulative IPC: 1.0547 (Simulation time: 0 hr 6 min 5 sec) 

ChampSim completed all CPUs

Region of Interest Statistics

CPU 0 cumulative IPC: 1.0547 instructions: 50000002 cycles: 47406867
L1D TOTAL     ACCESS:   21898388  HIT:   20266364  MISS:    1632024
L1D LOAD      ACCESS:    8735424  HIT:    7952724  MISS:     782700
L1D RFO       ACCESS:    4871276  HIT:    4764654  MISS:     106622
L1D PREFETCH  ACCESS:    8291688  HIT:    7548986  MISS:     742702
L1D WRITEBACK ACCESS:          0  HIT:          0  MISS:          0
L1D PREFETCH  REQUESTED:    8811791  ISSUED:    8644057  USEFUL:     220578  USELESS:     522129
L1D AVERAGE MISS LATENCY: 31.6982 cycles
L1I TOTAL     ACCESS:    9719095  HIT:    9046407  MISS:     672688
L1I LOAD      ACCESS:    9719095  HIT:    9046407  MISS:     672688
L1I RFO       ACCESS:          0  HIT:          0  MISS:          0
L1I PREFETCH  ACCESS:          0  HIT:          0  MISS:          0
L1I WRITEBACK ACCESS:          0  HIT:          0  MISS:          0
L1I PREFETCH  REQUESTED:          0  ISSUED:          0  USEFUL:          0  USELESS:          0
L1I AVERAGE MISS LATENCY: 17.4388 cycles
L2C TOTAL     ACCESS:    3669767  HIT:    3231101  MISS:     438666
L2C LOAD      ACCESS:    1409967  HIT:    1222297  MISS:     187670
L2C RFO       ACCESS:     101577  HIT:      18262  MISS:      83315
L2C PREFETCH  ACCESS:    1976167  HIT:    1808873  MISS:     167294
L2C WRITEBACK ACCESS:     182056  HIT:     181669  MISS:        387
L2C PREFETCH  REQUESTED:    2701544  ISSUED:    2701434  USEFUL:      16726  USELESS:     150326
L2C AVERAGE MISS LATENCY: 73.1527 cycles
LLC TOTAL     ACCESS:    1358683  HIT:    1179719  MISS:     178964
LLC LOAD      ACCESS:     187407  HIT:     162838  MISS:      24569
LLC RFO       ACCESS:      83311  HIT:      17309  MISS:      66002
LLC PREFETCH  ACCESS:     952421  HIT:     864416  MISS:      88005
LLC WRITEBACK ACCESS:     135544  HIT:     135156  MISS:        388
LLC PREFETCH  REQUESTED:          0  ISSUED:          0  USEFUL:      27513  USELESS:      66361
LLC AVERAGE MISS LATENCY: 160.792 cycles
Major fault: 0 Minor fault: 5303
CPU 0 L1D next line prefetcher final stats

DRAM Statistics
 CHANNEL 0
 RQ ROW_BUFFER_HIT:      52301  ROW_BUFFER_MISS:     126257
 DBUS_CONGESTED:      95384
 WQ ROW_BUFFER_HIT:      23022  ROW_BUFFER_MISS:      66875  FULL:          0

 AVG_CONGESTED_CYCLE: 6

CPU 0 Branch Prediction Accuracy: 95.4044% MPKI: 10.7264 Average ROB Occupancy at Mispredict: 63.7333

Branch types
NOT_BRANCH: 38329412 76.6588%
BRANCH_DIRECT_JUMP: 510116 1.02023%
BRANCH_INDIRECT: 225730 0.45146%
BRANCH_CONDITIONAL: 8366692 16.7334%
BRANCH_DIRECT_CALL: 600745 1.20149%
BRANCH_INDIRECT_CALL: 682990 1.36598%
BRANCH_RETURN: 1283970 2.56794%
BRANCH_OTHER: 0 0%

