Initialize SIGNATURE TABLE
ST_SET: 1
ST_WAY: 256
ST_TAG_BIT: 16
ST_TAG_MASK: ffff

Initialize PATTERN TABLE
PT_SET: 512
PT_WAY: 4
SIG_DELTA_BIT: 7
C_SIG_BIT: 4
C_DELTA_BIT: 4

Initialize PREFETCH FILTER
FILTER_SET: 1024

*** ChampSim Multicore Out-of-Order Simulator ***

Warmup Instructions: 50000000
Simulation Instructions: 50000000
Number of CPUs: 1
LLC sets: 2048
LLC ways: 16
Off-chip DRAM Size: 4096 MB Channels: 1 Width: 64-bit Data Rate: 3200 MT/s

CPU 0 runs /home/xubinfang/Desktop/ChampSim/dpc3_traces/client_001.champsimtrace.xz
CPU 0 Bimodal branch predictor
CPU 0 L1D next line prefetcher
Heartbeat CPU 0 instructions: 10000003 cycles: 3410793 heartbeat IPC: 2.93187 cumulative IPC: 2.93187 (Simulation time: 0 hr 0 min 25 sec) 
Heartbeat CPU 0 instructions: 20000001 cycles: 7120226 heartbeat IPC: 2.69583 cumulative IPC: 2.8089 (Simulation time: 0 hr 0 min 49 sec) 
Heartbeat CPU 0 instructions: 30000001 cycles: 10484169 heartbeat IPC: 2.9727 cumulative IPC: 2.86146 (Simulation time: 0 hr 1 min 16 sec) 
Heartbeat CPU 0 instructions: 40000003 cycles: 14354143 heartbeat IPC: 2.584 cumulative IPC: 2.78665 (Simulation time: 0 hr 1 min 44 sec) 
Heartbeat CPU 0 instructions: 50000003 cycles: 17651461 heartbeat IPC: 3.03277 cumulative IPC: 2.83263 (Simulation time: 0 hr 2 min 12 sec) 

Warmup complete CPU 0 instructions: 50000003 cycles: 17651461 (Simulation time: 0 hr 2 min 12 sec) 

Heartbeat CPU 0 instructions: 60000000 cycles: 27747976 heartbeat IPC: 0.99044 cumulative IPC: 0.99044 (Simulation time: 0 hr 2 min 40 sec) 
Heartbeat CPU 0 instructions: 70000000 cycles: 35318961 heartbeat IPC: 1.32083 cumulative IPC: 1.13202 (Simulation time: 0 hr 3 min 4 sec) 
Heartbeat CPU 0 instructions: 80000002 cycles: 45253170 heartbeat IPC: 1.00662 cumulative IPC: 1.08689 (Simulation time: 0 hr 3 min 35 sec) 
Heartbeat CPU 0 instructions: 90000000 cycles: 52861387 heartbeat IPC: 1.31437 cumulative IPC: 1.13604 (Simulation time: 0 hr 4 min 3 sec) 
Heartbeat CPU 0 instructions: 100000002 cycles: 62971728 heartbeat IPC: 0.989087 cumulative IPC: 1.10326 (Simulation time: 0 hr 4 min 34 sec) 
Finished CPU 0 instructions: 50000003 cycles: 45320268 cumulative IPC: 1.10326 (Simulation time: 0 hr 4 min 34 sec) 

ChampSim completed all CPUs

Region of Interest Statistics

CPU 0 cumulative IPC: 1.10326 instructions: 50000003 cycles: 45320268
L1D TOTAL     ACCESS:   22347476  HIT:   21510425  MISS:     837051
L1D LOAD      ACCESS:    9370852  HIT:    8984431  MISS:     386421
L1D RFO       ACCESS:    4059297  HIT:    4001429  MISS:      57868
L1D PREFETCH  ACCESS:    8917327  HIT:    8524565  MISS:     392762
L1D WRITEBACK ACCESS:          0  HIT:          0  MISS:          0
L1D PREFETCH  REQUESTED:    9425893  ISSUED:    9100801  USEFUL:     139077  USELESS:     253660
L1D AVERAGE MISS LATENCY: 45.8829 cycles
L1I TOTAL     ACCESS:    8887609  HIT:    8619123  MISS:     268486
L1I LOAD      ACCESS:    8887609  HIT:    8619123  MISS:     268486
L1I RFO       ACCESS:          0  HIT:          0  MISS:          0
L1I PREFETCH  ACCESS:          0  HIT:          0  MISS:          0
L1I WRITEBACK ACCESS:          0  HIT:          0  MISS:          0
L1I PREFETCH  REQUESTED:          0  ISSUED:          0  USEFUL:          0  USELESS:          0
L1I AVERAGE MISS LATENCY: 19.714 cycles
L2C TOTAL     ACCESS:    1939270  HIT:    1635634  MISS:     303636
L2C LOAD      ACCESS:     634849  HIT:     510022  MISS:     124827
L2C RFO       ACCESS:      56762  HIT:      21338  MISS:      35424
L2C PREFETCH  ACCESS:    1057941  HIT:     914772  MISS:     143169
L2C WRITEBACK ACCESS:     189718  HIT:     189502  MISS:        216
L2C PREFETCH  REQUESTED:    1509856  ISSUED:    1509567  USEFUL:      14364  USELESS:     129216
L2C AVERAGE MISS LATENCY: 96.1624 cycles
LLC TOTAL     ACCESS:     800562  HIT:     607885  MISS:     192677
LLC LOAD      ACCESS:     124294  HIT:      79775  MISS:      44519
LLC RFO       ACCESS:      35422  HIT:       8283  MISS:      27139
LLC PREFETCH  ACCESS:     534895  HIT:     414514  MISS:     120381
LLC WRITEBACK ACCESS:     105951  HIT:     105313  MISS:        638
LLC PREFETCH  REQUESTED:          0  ISSUED:          0  USEFUL:      30949  USELESS:      91627
LLC AVERAGE MISS LATENCY: 173.495 cycles
Major fault: 0 Minor fault: 3433
CPU 0 L1D next line prefetcher final stats

DRAM Statistics
 CHANNEL 0
 RQ ROW_BUFFER_HIT:      44831  ROW_BUFFER_MISS:     147200
 DBUS_CONGESTED:     111689
 WQ ROW_BUFFER_HIT:      15477  ROW_BUFFER_MISS:      64939  FULL:          0

 AVG_CONGESTED_CYCLE: 5

CPU 0 Branch Prediction Accuracy: 92.9088% MPKI: 12.2938 Average ROB Occupancy at Mispredict: 56.672

Branch types
NOT_BRANCH: 41331383 82.6628%
BRANCH_DIRECT_JUMP: 455615 0.91123%
BRANCH_INDIRECT: 20390 0.04078%
BRANCH_CONDITIONAL: 6745374 13.4907%
BRANCH_DIRECT_CALL: 494532 0.989064%
BRANCH_INDIRECT_CALL: 228815 0.45763%
BRANCH_RETURN: 723560 1.44712%
BRANCH_OTHER: 0 0%

