Initialize SIGNATURE TABLE
ST_SET: 1
ST_WAY: 256
ST_TAG_BIT: 16
ST_TAG_MASK: ffff

Initialize PATTERN TABLE
PT_SET: 512
PT_WAY: 4
SIG_DELTA_BIT: 7
C_SIG_BIT: 4
C_DELTA_BIT: 4

Initialize PREFETCH FILTER
FILTER_SET: 1024

*** ChampSim Multicore Out-of-Order Simulator ***

Warmup Instructions: 50000000
Simulation Instructions: 50000000
Number of CPUs: 1
LLC sets: 2048
LLC ways: 16
Off-chip DRAM Size: 4096 MB Channels: 1 Width: 64-bit Data Rate: 3200 MT/s

CPU 0 runs /home/xubinfang/Desktop/ChampSim/dpc3_traces/client_005.champsimtrace.xz
CPU 0 Bimodal branch predictor
CPU 0 L1D next line prefetcher
Heartbeat CPU 0 instructions: 10000001 cycles: 3291856 heartbeat IPC: 3.0378 cumulative IPC: 3.0378 (Simulation time: 0 hr 0 min 36 sec) 
Heartbeat CPU 0 instructions: 20000002 cycles: 6697738 heartbeat IPC: 2.9361 cumulative IPC: 2.98608 (Simulation time: 0 hr 1 min 12 sec) 
Heartbeat CPU 0 instructions: 30000001 cycles: 10391185 heartbeat IPC: 2.7075 cumulative IPC: 2.88706 (Simulation time: 0 hr 1 min 49 sec) 
Heartbeat CPU 0 instructions: 40000000 cycles: 14069081 heartbeat IPC: 2.71895 cumulative IPC: 2.84311 (Simulation time: 0 hr 2 min 27 sec) 
Heartbeat CPU 0 instructions: 50000001 cycles: 17342719 heartbeat IPC: 3.05471 cumulative IPC: 2.88305 (Simulation time: 0 hr 3 min 1 sec) 

Warmup complete CPU 0 instructions: 50000001 cycles: 17342719 (Simulation time: 0 hr 3 min 1 sec) 

Heartbeat CPU 0 instructions: 60000001 cycles: 27078269 heartbeat IPC: 1.02716 cumulative IPC: 1.02716 (Simulation time: 0 hr 3 min 32 sec) 
Heartbeat CPU 0 instructions: 70000003 cycles: 35659149 heartbeat IPC: 1.16538 cumulative IPC: 1.09192 (Simulation time: 0 hr 4 min 4 sec) 
Heartbeat CPU 0 instructions: 80000001 cycles: 43351841 heartbeat IPC: 1.29993 cumulative IPC: 1.15344 (Simulation time: 0 hr 4 min 38 sec) 
Heartbeat CPU 0 instructions: 90000002 cycles: 53577063 heartbeat IPC: 0.977974 cumulative IPC: 1.10393 (Simulation time: 0 hr 5 min 14 sec) 
Heartbeat CPU 0 instructions: 100000002 cycles: 62769211 heartbeat IPC: 1.08789 cumulative IPC: 1.10068 (Simulation time: 0 hr 5 min 43 sec) 
Finished CPU 0 instructions: 50000001 cycles: 45426492 cumulative IPC: 1.10068 (Simulation time: 0 hr 5 min 43 sec) 

ChampSim completed all CPUs

Region of Interest Statistics

CPU 0 cumulative IPC: 1.10068 instructions: 50000001 cycles: 45426492
L1D TOTAL     ACCESS:   20542661  HIT:   20006298  MISS:     536363
L1D LOAD      ACCESS:    7086186  HIT:    6915943  MISS:     170243
L1D RFO       ACCESS:    6832787  HIT:    6648889  MISS:     183898
L1D PREFETCH  ACCESS:    6623688  HIT:    6441466  MISS:     182222
L1D WRITEBACK ACCESS:          0  HIT:          0  MISS:          0
L1D PREFETCH  REQUESTED:    7110099  ISSUED:    6732232  USEFUL:      61453  USELESS:     120656
L1D AVERAGE MISS LATENCY: 90.5093 cycles
L1I TOTAL     ACCESS:    9349054  HIT:    8753630  MISS:     595424
L1I LOAD      ACCESS:    9349054  HIT:    8753630  MISS:     595424
L1I RFO       ACCESS:          0  HIT:          0  MISS:          0
L1I PREFETCH  ACCESS:          0  HIT:          0  MISS:          0
L1I WRITEBACK ACCESS:          0  HIT:          0  MISS:          0
L1I PREFETCH  REQUESTED:          0  ISSUED:          0  USEFUL:          0  USELESS:          0
L1I AVERAGE MISS LATENCY: 21.5615 cycles
L2C TOTAL     ACCESS:    1929708  HIT:    1555983  MISS:     373725
L2C LOAD      ACCESS:     754261  HIT:     618049  MISS:     136212
L2C RFO       ACCESS:     180308  HIT:      32998  MISS:     147310
L2C PREFETCH  ACCESS:     742129  HIT:     652929  MISS:      89200
L2C WRITEBACK ACCESS:     253010  HIT:     252007  MISS:       1003
L2C PREFETCH  REQUESTED:    1029393  ISSUED:    1029389  USEFUL:       7076  USELESS:      81533
L2C AVERAGE MISS LATENCY: 122.968 cycles
LLC TOTAL     ACCESS:     860976  HIT:     565251  MISS:     295725
LLC LOAD      ACCESS:     136178  HIT:      86559  MISS:      49619
LLC RFO       ACCESS:     147308  HIT:      17030  MISS:     130278
LLC PREFETCH  ACCESS:     380262  HIT:     265403  MISS:     114859
LLC WRITEBACK ACCESS:     197228  HIT:     196259  MISS:        969
LLC PREFETCH  REQUESTED:          0  ISSUED:          0  USEFUL:      30919  USELESS:      83106
LLC AVERAGE MISS LATENCY: 161.152 cycles
Major fault: 0 Minor fault: 6084
CPU 0 L1D next line prefetcher final stats

DRAM Statistics
 CHANNEL 0
 RQ ROW_BUFFER_HIT:      95808  ROW_BUFFER_MISS:     198933
 DBUS_CONGESTED:     231481
 WQ ROW_BUFFER_HIT:      51269  ROW_BUFFER_MISS:     131014  FULL:          0

 AVG_CONGESTED_CYCLE: 6

CPU 0 Branch Prediction Accuracy: 94.8377% MPKI: 9.44012 Average ROB Occupancy at Mispredict: 56.3355

Branch types
NOT_BRANCH: 40856324 81.7126%
BRANCH_DIRECT_JUMP: 484667 0.969334%
BRANCH_INDIRECT: 85086 0.170172%
BRANCH_CONDITIONAL: 6230887 12.4618%
BRANCH_DIRECT_CALL: 1028917 2.05783%
BRANCH_INDIRECT_CALL: 141825 0.28365%
BRANCH_RETURN: 1171985 2.34397%
BRANCH_OTHER: 0 0%

