Initialize SIGNATURE TABLE
ST_SET: 1
ST_WAY: 256
ST_TAG_BIT: 16
ST_TAG_MASK: ffff

Initialize PATTERN TABLE
PT_SET: 512
PT_WAY: 4
SIG_DELTA_BIT: 7
C_SIG_BIT: 4
C_DELTA_BIT: 4

Initialize PREFETCH FILTER
FILTER_SET: 1024

*** ChampSim Multicore Out-of-Order Simulator ***

Warmup Instructions: 50000000
Simulation Instructions: 50000000
Number of CPUs: 1
LLC sets: 2048
LLC ways: 16
Off-chip DRAM Size: 4096 MB Channels: 1 Width: 64-bit Data Rate: 3200 MT/s

CPU 0 runs /home/xubinfang/Desktop/ChampSim/dpc3_traces/client_003.champsimtrace.xz
CPU 0 Bimodal branch predictor
CPU 0 L1D next line prefetcher
Heartbeat CPU 0 instructions: 10000000 cycles: 3478418 heartbeat IPC: 2.87487 cumulative IPC: 2.87487 (Simulation time: 0 hr 0 min 27 sec) 
Heartbeat CPU 0 instructions: 20000002 cycles: 6933141 heartbeat IPC: 2.89459 cumulative IPC: 2.8847 (Simulation time: 0 hr 0 min 57 sec) 
Heartbeat CPU 0 instructions: 30000003 cycles: 10494404 heartbeat IPC: 2.80799 cumulative IPC: 2.85867 (Simulation time: 0 hr 1 min 29 sec) 
Heartbeat CPU 0 instructions: 40000001 cycles: 14111015 heartbeat IPC: 2.76502 cumulative IPC: 2.83467 (Simulation time: 0 hr 1 min 59 sec) 
Heartbeat CPU 0 instructions: 50000003 cycles: 17656308 heartbeat IPC: 2.82064 cumulative IPC: 2.83185 (Simulation time: 0 hr 2 min 28 sec) 

Warmup complete CPU 0 instructions: 50000003 cycles: 17656308 (Simulation time: 0 hr 2 min 28 sec) 

Heartbeat CPU 0 instructions: 60000002 cycles: 25045309 heartbeat IPC: 1.35336 cumulative IPC: 1.35336 (Simulation time: 0 hr 2 min 53 sec) 
Heartbeat CPU 0 instructions: 70000001 cycles: 32181224 heartbeat IPC: 1.40136 cumulative IPC: 1.37694 (Simulation time: 0 hr 3 min 18 sec) 
Heartbeat CPU 0 instructions: 80000000 cycles: 40667406 heartbeat IPC: 1.17839 cumulative IPC: 1.30372 (Simulation time: 0 hr 3 min 42 sec) 
Heartbeat CPU 0 instructions: 90000000 cycles: 50262779 heartbeat IPC: 1.04217 cumulative IPC: 1.22675 (Simulation time: 0 hr 4 min 3 sec) 
Heartbeat CPU 0 instructions: 100000003 cycles: 61257022 heartbeat IPC: 0.909567 cumulative IPC: 1.14677 (Simulation time: 0 hr 4 min 30 sec) 
Finished CPU 0 instructions: 50000000 cycles: 43600714 cumulative IPC: 1.14677 (Simulation time: 0 hr 4 min 30 sec) 

ChampSim completed all CPUs

Region of Interest Statistics

CPU 0 cumulative IPC: 1.14677 instructions: 50000000 cycles: 43600714
L1D TOTAL     ACCESS:   18323895  HIT:   17827648  MISS:     496247
L1D LOAD      ACCESS:    6373059  HIT:    6247463  MISS:     125596
L1D RFO       ACCESS:    5974919  HIT:    5741047  MISS:     233872
L1D PREFETCH  ACCESS:    5975917  HIT:    5839138  MISS:     136779
L1D WRITEBACK ACCESS:          0  HIT:          0  MISS:          0
L1D PREFETCH  REQUESTED:    6414576  ISSUED:    6268526  USEFUL:      68545  USELESS:      68281
L1D AVERAGE MISS LATENCY: 121.703 cycles
L1I TOTAL     ACCESS:    9460266  HIT:    9053628  MISS:     406638
L1I LOAD      ACCESS:    9460266  HIT:    9053628  MISS:     406638
L1I RFO       ACCESS:          0  HIT:          0  MISS:          0
L1I PREFETCH  ACCESS:          0  HIT:          0  MISS:          0
L1I WRITEBACK ACCESS:          0  HIT:          0  MISS:          0
L1I PREFETCH  REQUESTED:          0  ISSUED:          0  USEFUL:          0  USELESS:          0
L1I AVERAGE MISS LATENCY: 21.9807 cycles
L2C TOTAL     ACCESS:    1548042  HIT:    1164975  MISS:     383067
L2C LOAD      ACCESS:     498854  HIT:     420680  MISS:      78174
L2C RFO       ACCESS:     231870  HIT:      27030  MISS:     204840
L2C PREFETCH  ACCESS:     548056  HIT:     449000  MISS:      99056
L2C WRITEBACK ACCESS:     269262  HIT:     268265  MISS:        997
L2C PREFETCH  REQUESTED:     857352  ISSUED:     857329  USEFUL:       5634  USELESS:      92480
L2C AVERAGE MISS LATENCY: 166.552 cycles
LLC TOTAL     ACCESS:     921022  HIT:     639977  MISS:     281045
LLC LOAD      ACCESS:      78090  HIT:      59364  MISS:      18726
LLC RFO       ACCESS:     204835  HIT:      33995  MISS:     170840
LLC PREFETCH  ACCESS:     415760  HIT:     324710  MISS:      91050
LLC WRITEBACK ACCESS:     222337  HIT:     221908  MISS:        429
LLC PREFETCH  REQUESTED:          0  ISSUED:          0  USEFUL:      13565  USELESS:      75718
LLC AVERAGE MISS LATENCY: 225.543 cycles
Major fault: 0 Minor fault: 5042
CPU 0 L1D next line prefetcher final stats

DRAM Statistics
 CHANNEL 0
 RQ ROW_BUFFER_HIT:      97827  ROW_BUFFER_MISS:     182784
 DBUS_CONGESTED:     253083
 WQ ROW_BUFFER_HIT:      60970  ROW_BUFFER_MISS:     117200  FULL:          0

 AVG_CONGESTED_CYCLE: 6

CPU 0 Branch Prediction Accuracy: 96.8235% MPKI: 6.3409 Average ROB Occupancy at Mispredict: 55.3576

Branch types
NOT_BRANCH: 40018656 80.0373%
BRANCH_DIRECT_JUMP: 370859 0.741718%
BRANCH_INDIRECT: 83252 0.166504%
BRANCH_CONDITIONAL: 7877420 15.7548%
BRANCH_DIRECT_CALL: 722308 1.44462%
BRANCH_INDIRECT_CALL: 101901 0.203802%
BRANCH_RETURN: 825352 1.6507%
BRANCH_OTHER: 0 0%

