Initialize SIGNATURE TABLE
ST_SET: 1
ST_WAY: 256
ST_TAG_BIT: 16
ST_TAG_MASK: ffff

Initialize PATTERN TABLE
PT_SET: 512
PT_WAY: 4
SIG_DELTA_BIT: 7
C_SIG_BIT: 4
C_DELTA_BIT: 4

Initialize PREFETCH FILTER
FILTER_SET: 1024

*** ChampSim Multicore Out-of-Order Simulator ***

Warmup Instructions: 50000000
Simulation Instructions: 50000000
Number of CPUs: 1
LLC sets: 2048
LLC ways: 16
Off-chip DRAM Size: 4096 MB Channels: 1 Width: 64-bit Data Rate: 3200 MT/s

CPU 0 runs /home/xubinfang/Desktop/ChampSim/dpc3_traces/client_007.champsimtrace.xz
CPU 0 Bimodal branch predictor
CPU 0 L1D next line prefetcher
Heartbeat CPU 0 instructions: 10000001 cycles: 3643620 heartbeat IPC: 2.74452 cumulative IPC: 2.74452 (Simulation time: 0 hr 0 min 36 sec) 
Heartbeat CPU 0 instructions: 20000003 cycles: 7037389 heartbeat IPC: 2.94658 cumulative IPC: 2.84196 (Simulation time: 0 hr 1 min 9 sec) 
Heartbeat CPU 0 instructions: 30000000 cycles: 10911607 heartbeat IPC: 2.58117 cumulative IPC: 2.74937 (Simulation time: 0 hr 1 min 47 sec) 
Heartbeat CPU 0 instructions: 40000003 cycles: 15071557 heartbeat IPC: 2.40388 cumulative IPC: 2.65401 (Simulation time: 0 hr 2 min 24 sec) 
Heartbeat CPU 0 instructions: 50000002 cycles: 18477864 heartbeat IPC: 2.93573 cumulative IPC: 2.70594 (Simulation time: 0 hr 2 min 59 sec) 

Warmup complete CPU 0 instructions: 50000002 cycles: 18477864 (Simulation time: 0 hr 2 min 59 sec) 

Heartbeat CPU 0 instructions: 60000001 cycles: 27687059 heartbeat IPC: 1.08587 cumulative IPC: 1.08587 (Simulation time: 0 hr 3 min 33 sec) 
Heartbeat CPU 0 instructions: 70000003 cycles: 36924614 heartbeat IPC: 1.08254 cumulative IPC: 1.0842 (Simulation time: 0 hr 4 min 11 sec) 
Heartbeat CPU 0 instructions: 80000002 cycles: 43546728 heartbeat IPC: 1.51009 cumulative IPC: 1.1967 (Simulation time: 0 hr 4 min 35 sec) 
Heartbeat CPU 0 instructions: 90000000 cycles: 54104308 heartbeat IPC: 0.947187 cumulative IPC: 1.12276 (Simulation time: 0 hr 5 min 8 sec) 
Heartbeat CPU 0 instructions: 100000001 cycles: 64124110 heartbeat IPC: 0.998024 cumulative IPC: 1.09538 (Simulation time: 0 hr 5 min 39 sec) 
Finished CPU 0 instructions: 50000000 cycles: 45646247 cumulative IPC: 1.09538 (Simulation time: 0 hr 5 min 39 sec) 

ChampSim completed all CPUs

Region of Interest Statistics

CPU 0 cumulative IPC: 1.09538 instructions: 50000000 cycles: 45646247
L1D TOTAL     ACCESS:   22628656  HIT:   21457779  MISS:    1170877
L1D LOAD      ACCESS:    9034787  HIT:    8512864  MISS:     521923
L1D RFO       ACCESS:    4971893  HIT:    4881976  MISS:      89917
L1D PREFETCH  ACCESS:    8621976  HIT:    8062939  MISS:     559037
L1D WRITEBACK ACCESS:          0  HIT:          0  MISS:          0
L1D PREFETCH  REQUESTED:    9096649  ISSUED:    8851598  USEFUL:     176377  USELESS:     382675
L1D AVERAGE MISS LATENCY: 33.603 cycles
L1I TOTAL     ACCESS:    8941698  HIT:    8138415  MISS:     803283
L1I LOAD      ACCESS:    8941698  HIT:    8138415  MISS:     803283
L1I RFO       ACCESS:          0  HIT:          0  MISS:          0
L1I PREFETCH  ACCESS:          0  HIT:          0  MISS:          0
L1I WRITEBACK ACCESS:          0  HIT:          0  MISS:          0
L1I PREFETCH  REQUESTED:          0  ISSUED:          0  USEFUL:          0  USELESS:          0
L1I AVERAGE MISS LATENCY: 15.497 cycles
L2C TOTAL     ACCESS:    3401016  HIT:    3196028  MISS:     204988
L2C LOAD      ACCESS:    1297142  HIT:    1220215  MISS:      76927
L2C RFO       ACCESS:      87832  HIT:      47904  MISS:      39928
L2C PREFETCH  ACCESS:    1687986  HIT:    1599949  MISS:      88037
L2C WRITEBACK ACCESS:     328056  HIT:     327960  MISS:         96
L2C PREFETCH  REQUESTED:    2333182  ISSUED:    2332836  USEFUL:       8357  USELESS:      77898
L2C AVERAGE MISS LATENCY: 118.499 cycles
LLC TOTAL     ACCESS:     930901  HIT:     764544  MISS:     166357
LLC LOAD      ACCESS:      76824  HIT:      39743  MISS:      37081
LLC RFO       ACCESS:      39928  HIT:       7752  MISS:      32176
LLC PREFETCH  ACCESS:     739848  HIT:     643057  MISS:      96791
LLC WRITEBACK ACCESS:      74301  HIT:      73992  MISS:        309
LLC PREFETCH  REQUESTED:          0  ISSUED:          0  USEFUL:      20732  USELESS:      74042
LLC AVERAGE MISS LATENCY: 174.997 cycles
Major fault: 0 Minor fault: 4405
CPU 0 L1D next line prefetcher final stats

DRAM Statistics
 CHANNEL 0
 RQ ROW_BUFFER_HIT:      33296  ROW_BUFFER_MISS:     132743
 DBUS_CONGESTED:      90599
 WQ ROW_BUFFER_HIT:      13313  ROW_BUFFER_MISS:      45394  FULL:          0

 AVG_CONGESTED_CYCLE: 5

CPU 0 Branch Prediction Accuracy: 94.8618% MPKI: 8.3988 Average ROB Occupancy at Mispredict: 59.1169

Branch types
NOT_BRANCH: 41826773 83.6535%
BRANCH_DIRECT_JUMP: 735330 1.47066%
BRANCH_INDIRECT: 269194 0.538388%
BRANCH_CONDITIONAL: 5957947 11.9159%
BRANCH_DIRECT_CALL: 368758 0.737516%
BRANCH_INDIRECT_CALL: 226975 0.45395%
BRANCH_RETURN: 614696 1.22939%
BRANCH_OTHER: 0 0%

