Initialize SIGNATURE TABLE
ST_SET: 1
ST_WAY: 256
ST_TAG_BIT: 16
ST_TAG_MASK: ffff

Initialize PATTERN TABLE
PT_SET: 512
PT_WAY: 4
SIG_DELTA_BIT: 7
C_SIG_BIT: 4
C_DELTA_BIT: 4

Initialize PREFETCH FILTER
FILTER_SET: 1024

*** ChampSim Multicore Out-of-Order Simulator ***

Warmup Instructions: 50000000
Simulation Instructions: 50000000
Number of CPUs: 1
LLC sets: 2048
LLC ways: 16
Off-chip DRAM Size: 4096 MB Channels: 1 Width: 64-bit Data Rate: 3200 MT/s

CPU 0 runs /home/xubinfang/Desktop/ChampSim/dpc3_traces/server_013.champsimtrace.xz
CPU 0 Bimodal branch predictor
CPU 0 L1D next line prefetcher
Heartbeat CPU 0 instructions: 10000000 cycles: 3217587 heartbeat IPC: 3.10792 cumulative IPC: 3.10792 (Simulation time: 0 hr 0 min 26 sec) 
Heartbeat CPU 0 instructions: 20000001 cycles: 6424988 heartbeat IPC: 3.11779 cumulative IPC: 3.11285 (Simulation time: 0 hr 0 min 54 sec) 
Heartbeat CPU 0 instructions: 30000002 cycles: 9635297 heartbeat IPC: 3.11497 cumulative IPC: 3.11355 (Simulation time: 0 hr 1 min 24 sec) 
Heartbeat CPU 0 instructions: 40000002 cycles: 12841546 heartbeat IPC: 3.11891 cumulative IPC: 3.11489 (Simulation time: 0 hr 1 min 53 sec) 
Heartbeat CPU 0 instructions: 50000000 cycles: 16048767 heartbeat IPC: 3.11796 cumulative IPC: 3.1155 (Simulation time: 0 hr 2 min 24 sec) 

Warmup complete CPU 0 instructions: 50000004 cycles: 16048768 (Simulation time: 0 hr 2 min 24 sec) 

Heartbeat CPU 0 instructions: 60000002 cycles: 29166798 heartbeat IPC: 0.76231 cumulative IPC: 0.762309 (Simulation time: 0 hr 2 min 54 sec) 
Heartbeat CPU 0 instructions: 70000000 cycles: 42507982 heartbeat IPC: 0.749559 cumulative IPC: 0.75588 (Simulation time: 0 hr 3 min 19 sec) 
Heartbeat CPU 0 instructions: 80000001 cycles: 55303037 heartbeat IPC: 0.781552 cumulative IPC: 0.764248 (Simulation time: 0 hr 3 min 44 sec) 
Heartbeat CPU 0 instructions: 90000003 cycles: 68356632 heartbeat IPC: 0.766073 cumulative IPC: 0.764703 (Simulation time: 0 hr 4 min 10 sec) 
Heartbeat CPU 0 instructions: 100000000 cycles: 81421878 heartbeat IPC: 0.765389 cumulative IPC: 0.76484 (Simulation time: 0 hr 4 min 33 sec) 
Finished CPU 0 instructions: 50000000 cycles: 65373111 cumulative IPC: 0.76484 (Simulation time: 0 hr 4 min 33 sec) 

ChampSim completed all CPUs

Region of Interest Statistics

CPU 0 cumulative IPC: 0.76484 instructions: 50000000 cycles: 65373111
L1D TOTAL     ACCESS:   19002979  HIT:   17934586  MISS:    1068393
L1D LOAD      ACCESS:    7113512  HIT:    6628521  MISS:     484991
L1D RFO       ACCESS:    4999657  HIT:    4918885  MISS:      80772
L1D PREFETCH  ACCESS:    6889810  HIT:    6387180  MISS:     502630
L1D WRITEBACK ACCESS:          0  HIT:          0  MISS:          0
L1D PREFETCH  REQUESTED:    7153394  ISSUED:    7046292  USEFUL:     150240  USELESS:     352399
L1D AVERAGE MISS LATENCY: 40.3173 cycles
L1I TOTAL     ACCESS:    8634040  HIT:    7278631  MISS:    1355409
L1I LOAD      ACCESS:    8634040  HIT:    7278631  MISS:    1355409
L1I RFO       ACCESS:          0  HIT:          0  MISS:          0
L1I PREFETCH  ACCESS:          0  HIT:          0  MISS:          0
L1I WRITEBACK ACCESS:          0  HIT:          0  MISS:          0
L1I PREFETCH  REQUESTED:          0  ISSUED:          0  USEFUL:          0  USELESS:          0
L1I AVERAGE MISS LATENCY: 31.7925 cycles
L2C TOTAL     ACCESS:    3758496  HIT:    2466563  MISS:    1291933
L2C LOAD      ACCESS:    1820099  HIT:     936065  MISS:     884034
L2C RFO       ACCESS:      79342  HIT:      32296  MISS:      47046
L2C PREFETCH  ACCESS:    1583155  HIT:    1223283  MISS:     359872
L2C WRITEBACK ACCESS:     275900  HIT:     274919  MISS:        981
L2C PREFETCH  REQUESTED:    3720242  ISSUED:    3719837  USEFUL:      67307  USELESS:     292390
L2C AVERAGE MISS LATENCY: 40.9956 cycles
LLC TOTAL     ACCESS:    3354495  HIT:    3133412  MISS:     221083
LLC LOAD      ACCESS:     848338  HIT:     798943  MISS:      49395
LLC RFO       ACCESS:      47041  HIT:      36485  MISS:      10556
LLC PREFETCH  ACCESS:    2289640  HIT:    2129202  MISS:     160438
LLC WRITEBACK ACCESS:     169476  HIT:     168782  MISS:        694
LLC PREFETCH  REQUESTED:          0  ISSUED:          0  USEFUL:      32593  USELESS:     127536
LLC AVERAGE MISS LATENCY: 159.772 cycles
Major fault: 0 Minor fault: 6200
CPU 0 L1D next line prefetcher final stats

DRAM Statistics
 CHANNEL 0
 RQ ROW_BUFFER_HIT:      41198  ROW_BUFFER_MISS:     179191
 DBUS_CONGESTED:      83366
 WQ ROW_BUFFER_HIT:      11590  ROW_BUFFER_MISS:      55092  FULL:          0

 AVG_CONGESTED_CYCLE: 5

CPU 0 Branch Prediction Accuracy: 92.974% MPKI: 13.0495 Average ROB Occupancy at Mispredict: 26.6917

Branch types
NOT_BRANCH: 40713037 81.4261%
BRANCH_DIRECT_JUMP: 463697 0.927394%
BRANCH_INDIRECT: 146542 0.293084%
BRANCH_CONDITIONAL: 6981920 13.9638%
BRANCH_DIRECT_CALL: 665003 1.33001%
BRANCH_INDIRECT_CALL: 165150 0.3303%
BRANCH_RETURN: 864309 1.72862%
BRANCH_OTHER: 0 0%

