Initialize SIGNATURE TABLE
ST_SET: 1
ST_WAY: 256
ST_TAG_BIT: 16
ST_TAG_MASK: ffff

Initialize PATTERN TABLE
PT_SET: 512
PT_WAY: 4
SIG_DELTA_BIT: 7
C_SIG_BIT: 4
C_DELTA_BIT: 4

Initialize PREFETCH FILTER
FILTER_SET: 1024

*** ChampSim Multicore Out-of-Order Simulator ***

Warmup Instructions: 50000000
Simulation Instructions: 50000000
Number of CPUs: 1
LLC sets: 2048
LLC ways: 16
Off-chip DRAM Size: 4096 MB Channels: 1 Width: 64-bit Data Rate: 3200 MT/s

CPU 0 runs /home/xubinfang/Desktop/ChampSim/dpc3_traces/server_036.champsimtrace.xz
CPU 0 Bimodal branch predictor
CPU 0 L1D next line prefetcher
Heartbeat CPU 0 instructions: 10000000 cycles: 3459063 heartbeat IPC: 2.89096 cumulative IPC: 2.89096 (Simulation time: 0 hr 0 min 30 sec) 
Heartbeat CPU 0 instructions: 20000000 cycles: 6924960 heartbeat IPC: 2.88526 cumulative IPC: 2.8881 (Simulation time: 0 hr 1 min 3 sec) 
Heartbeat CPU 0 instructions: 30000003 cycles: 10433101 heartbeat IPC: 2.85051 cumulative IPC: 2.87546 (Simulation time: 0 hr 1 min 37 sec) 
Heartbeat CPU 0 instructions: 40000000 cycles: 13895630 heartbeat IPC: 2.88806 cumulative IPC: 2.8786 (Simulation time: 0 hr 2 min 9 sec) 
Heartbeat CPU 0 instructions: 50000002 cycles: 17357353 heartbeat IPC: 2.88874 cumulative IPC: 2.88062 (Simulation time: 0 hr 2 min 43 sec) 

Warmup complete CPU 0 instructions: 50000002 cycles: 17357353 (Simulation time: 0 hr 2 min 43 sec) 

Heartbeat CPU 0 instructions: 60000002 cycles: 28894756 heartbeat IPC: 0.866746 cumulative IPC: 0.866746 (Simulation time: 0 hr 3 min 7 sec) 
Heartbeat CPU 0 instructions: 70000001 cycles: 40368782 heartbeat IPC: 0.871534 cumulative IPC: 0.869133 (Simulation time: 0 hr 3 min 30 sec) 
Heartbeat CPU 0 instructions: 80000000 cycles: 51851158 heartbeat IPC: 0.8709 cumulative IPC: 0.869721 (Simulation time: 0 hr 3 min 53 sec) 
Heartbeat CPU 0 instructions: 90000002 cycles: 63326118 heartbeat IPC: 0.871463 cumulative IPC: 0.870156 (Simulation time: 0 hr 4 min 16 sec) 
Heartbeat CPU 0 instructions: 100000001 cycles: 74798890 heartbeat IPC: 0.871629 cumulative IPC: 0.87045 (Simulation time: 0 hr 4 min 37 sec) 
Finished CPU 0 instructions: 50000003 cycles: 57441538 cumulative IPC: 0.87045 (Simulation time: 0 hr 4 min 37 sec) 

ChampSim completed all CPUs

Region of Interest Statistics

CPU 0 cumulative IPC: 0.87045 instructions: 50000003 cycles: 57441538
L1D TOTAL     ACCESS:   24433587  HIT:   24371018  MISS:      62569
L1D LOAD      ACCESS:    8559166  HIT:    8524133  MISS:      35033
L1D RFO       ACCESS:    7445541  HIT:    7438279  MISS:       7262
L1D PREFETCH  ACCESS:    8428880  HIT:    8408606  MISS:      20274
L1D WRITEBACK ACCESS:          0  HIT:          0  MISS:          0
L1D PREFETCH  REQUESTED:    8559461  ISSUED:    8458053  USEFUL:       5536  USELESS:      14739
L1D AVERAGE MISS LATENCY: 16.8964 cycles
L1I TOTAL     ACCESS:    9174705  HIT:    5353913  MISS:    3820792
L1I LOAD      ACCESS:    9174705  HIT:    5353913  MISS:    3820792
L1I RFO       ACCESS:          0  HIT:          0  MISS:          0
L1I PREFETCH  ACCESS:          0  HIT:          0  MISS:          0
L1I WRITEBACK ACCESS:          0  HIT:          0  MISS:          0
L1I PREFETCH  REQUESTED:          0  ISSUED:          0  USEFUL:          0  USELESS:          0
L1I AVERAGE MISS LATENCY: 14.0818 cycles
L2C TOTAL     ACCESS:    7418011  HIT:    7415937  MISS:       2074
L2C LOAD      ACCESS:    3855601  HIT:    3854795  MISS:        806
L2C RFO       ACCESS:       7262  HIT:       7208  MISS:         54
L2C PREFETCH  ACCESS:    3539418  HIT:    3538214  MISS:       1204
L2C WRITEBACK ACCESS:      15730  HIT:      15720  MISS:         10
L2C PREFETCH  REQUESTED:    5704356  ISSUED:    5704356  USEFUL:        110  USELESS:        741
L2C AVERAGE MISS LATENCY: 103.952 cycles
LLC TOTAL     ACCESS:    1174038  HIT:    1171551  MISS:       2487
LLC LOAD      ACCESS:        804  HIT:        310  MISS:        494
LLC RFO       ACCESS:         54  HIT:         25  MISS:         29
LLC PREFETCH  ACCESS:    1172287  HIT:    1170326  MISS:       1961
LLC WRITEBACK ACCESS:        893  HIT:        890  MISS:          3
LLC PREFETCH  REQUESTED:          0  ISSUED:          0  USEFUL:        186  USELESS:        649
LLC AVERAGE MISS LATENCY: 187.429 cycles
Major fault: 0 Minor fault: 1926
CPU 0 L1D next line prefetcher final stats

DRAM Statistics
 CHANNEL 0
 RQ ROW_BUFFER_HIT:        452  ROW_BUFFER_MISS:       2032
 DBUS_CONGESTED:       1444
 WQ ROW_BUFFER_HIT:        334  ROW_BUFFER_MISS:       1255  FULL:          0

 AVG_CONGESTED_CYCLE: 6

CPU 0 Branch Prediction Accuracy: 96.3055% MPKI: 6.09676 Average ROB Occupancy at Mispredict: 19.3252

Branch types
NOT_BRANCH: 41748418 83.4968%
BRANCH_DIRECT_JUMP: 468563 0.937126%
BRANCH_INDIRECT: 0 0%
BRANCH_CONDITIONAL: 5599748 11.1995%
BRANCH_DIRECT_CALL: 885105 1.77021%
BRANCH_INDIRECT_CALL: 206338 0.412676%
BRANCH_RETURN: 1091467 2.18293%
BRANCH_OTHER: 0 0%

