Initialize SIGNATURE TABLE
ST_SET: 1
ST_WAY: 256
ST_TAG_BIT: 16
ST_TAG_MASK: ffff

Initialize PATTERN TABLE
PT_SET: 512
PT_WAY: 4
SIG_DELTA_BIT: 7
C_SIG_BIT: 4
C_DELTA_BIT: 4

Initialize PREFETCH FILTER
FILTER_SET: 1024

*** ChampSim Multicore Out-of-Order Simulator ***

Warmup Instructions: 50000000
Simulation Instructions: 50000000
Number of CPUs: 1
LLC sets: 2048
LLC ways: 16
Off-chip DRAM Size: 4096 MB Channels: 1 Width: 64-bit Data Rate: 3200 MT/s

CPU 0 runs /home/xubinfang/Desktop/ChampSim/dpc3_traces/server_010.champsimtrace.xz
CPU 0 Bimodal branch predictor
CPU 0 L1D next line prefetcher
Heartbeat CPU 0 instructions: 10000000 cycles: 3200272 heartbeat IPC: 3.12473 cumulative IPC: 3.12473 (Simulation time: 0 hr 0 min 36 sec) 
Heartbeat CPU 0 instructions: 20000002 cycles: 6397189 heartbeat IPC: 3.12801 cumulative IPC: 3.12637 (Simulation time: 0 hr 1 min 13 sec) 
Heartbeat CPU 0 instructions: 30000001 cycles: 9597146 heartbeat IPC: 3.12504 cumulative IPC: 3.12593 (Simulation time: 0 hr 1 min 48 sec) 
Heartbeat CPU 0 instructions: 40000000 cycles: 12793128 heartbeat IPC: 3.12893 cumulative IPC: 3.12668 (Simulation time: 0 hr 2 min 24 sec) 
Heartbeat CPU 0 instructions: 50000003 cycles: 15995117 heartbeat IPC: 3.12306 cumulative IPC: 3.12595 (Simulation time: 0 hr 3 min 1 sec) 

Warmup complete CPU 0 instructions: 50000003 cycles: 15995117 (Simulation time: 0 hr 3 min 1 sec) 

Heartbeat CPU 0 instructions: 60000000 cycles: 28181559 heartbeat IPC: 0.820584 cumulative IPC: 0.820584 (Simulation time: 0 hr 3 min 33 sec) 
Heartbeat CPU 0 instructions: 70000000 cycles: 40708105 heartbeat IPC: 0.798305 cumulative IPC: 0.809291 (Simulation time: 0 hr 4 min 4 sec) 
Heartbeat CPU 0 instructions: 80000003 cycles: 53415929 heartbeat IPC: 0.786917 cumulative IPC: 0.801693 (Simulation time: 0 hr 4 min 37 sec) 
Heartbeat CPU 0 instructions: 90000002 cycles: 65631081 heartbeat IPC: 0.818655 cumulative IPC: 0.805867 (Simulation time: 0 hr 5 min 9 sec) 
Heartbeat CPU 0 instructions: 100000000 cycles: 88695925 heartbeat IPC: 0.43356 cumulative IPC: 0.68775 (Simulation time: 0 hr 6 min 0 sec) 
Finished CPU 0 instructions: 50000001 cycles: 72700814 cumulative IPC: 0.68775 (Simulation time: 0 hr 6 min 0 sec) 

ChampSim completed all CPUs

Region of Interest Statistics

CPU 0 cumulative IPC: 0.68775 instructions: 50000001 cycles: 72700814
L1D TOTAL     ACCESS:   21385540  HIT:   18158723  MISS:    3226817
L1D LOAD      ACCESS:    8409011  HIT:    6830104  MISS:    1578907
L1D RFO       ACCESS:    4771684  HIT:    4676700  MISS:      94984
L1D PREFETCH  ACCESS:    8204845  HIT:    6651919  MISS:    1552926
L1D WRITEBACK ACCESS:          0  HIT:          0  MISS:          0
L1D PREFETCH  REQUESTED:    8443658  ISSUED:    8340220  USEFUL:     131534  USELESS:    1421363
L1D AVERAGE MISS LATENCY: 22.0208 cycles
L1I TOTAL     ACCESS:    9309519  HIT:    8173599  MISS:    1135920
L1I LOAD      ACCESS:    9309519  HIT:    8173599  MISS:    1135920
L1I RFO       ACCESS:          0  HIT:          0  MISS:          0
L1I PREFETCH  ACCESS:          0  HIT:          0  MISS:          0
L1I WRITEBACK ACCESS:          0  HIT:          0  MISS:          0
L1I PREFETCH  REQUESTED:          0  ISSUED:          0  USEFUL:          0  USELESS:          0
L1I AVERAGE MISS LATENCY: 30.587 cycles
L2C TOTAL     ACCESS:    6208749  HIT:    5141635  MISS:    1067114
L2C LOAD      ACCESS:    2696905  HIT:    1978432  MISS:     718473
L2C RFO       ACCESS:      93983  HIT:      50768  MISS:      43215
L2C PREFETCH  ACCESS:    3152455  HIT:    2847651  MISS:     304804
L2C WRITEBACK ACCESS:     265406  HIT:     264784  MISS:        622
L2C PREFETCH  REQUESTED:    6807922  ISSUED:    6807698  USEFUL:      58028  USELESS:     246389
L2C AVERAGE MISS LATENCY: 39.5357 cycles
LLC TOTAL     ACCESS:    3057008  HIT:    2906681  MISS:     150327
LLC LOAD      ACCESS:     688852  HIT:     656313  MISS:      32539
LLC RFO       ACCESS:      43211  HIT:      34863  MISS:       8348
LLC PREFETCH  ACCESS:    2180779  HIT:    2071921  MISS:     108858
LLC WRITEBACK ACCESS:     144166  HIT:     143584  MISS:        582
LLC PREFETCH  REQUESTED:          0  ISSUED:          0  USEFUL:      20477  USELESS:      88618
LLC AVERAGE MISS LATENCY: 161.282 cycles
Major fault: 0 Minor fault: 5593
CPU 0 L1D next line prefetcher final stats

DRAM Statistics
 CHANNEL 0
 RQ ROW_BUFFER_HIT:      25446  ROW_BUFFER_MISS:     124294
 DBUS_CONGESTED:      59605
 WQ ROW_BUFFER_HIT:       8804  ROW_BUFFER_MISS:      46359  FULL:          0

 AVG_CONGESTED_CYCLE: 5

CPU 0 Branch Prediction Accuracy: 93.9047% MPKI: 12.2405 Average ROB Occupancy at Mispredict: 34.7137

Branch types
NOT_BRANCH: 39958749 79.9175%
BRANCH_DIRECT_JUMP: 449946 0.899892%
BRANCH_INDIRECT: 140210 0.28042%
BRANCH_CONDITIONAL: 7679658 15.3593%
BRANCH_DIRECT_CALL: 701578 1.40316%
BRANCH_INDIRECT_CALL: 168971 0.337942%
BRANCH_RETURN: 900560 1.80112%
BRANCH_OTHER: 0 0%

