Initialize SIGNATURE TABLE
ST_SET: 1
ST_WAY: 256
ST_TAG_BIT: 16
ST_TAG_MASK: ffff

Initialize PATTERN TABLE
PT_SET: 512
PT_WAY: 4
SIG_DELTA_BIT: 7
C_SIG_BIT: 4
C_DELTA_BIT: 4

Initialize PREFETCH FILTER
FILTER_SET: 1024

*** ChampSim Multicore Out-of-Order Simulator ***

Warmup Instructions: 50000000
Simulation Instructions: 50000000
Number of CPUs: 1
LLC sets: 2048
LLC ways: 16
Off-chip DRAM Size: 4096 MB Channels: 1 Width: 64-bit Data Rate: 3200 MT/s

CPU 0 runs /home/xubinfang/Desktop/ChampSim/dpc3_traces/server_031.champsimtrace.xz
CPU 0 Bimodal branch predictor
CPU 0 L1D next line prefetcher
Heartbeat CPU 0 instructions: 10000003 cycles: 3530669 heartbeat IPC: 2.83233 cumulative IPC: 2.83233 (Simulation time: 0 hr 0 min 35 sec) 
Heartbeat CPU 0 instructions: 20000002 cycles: 7060351 heartbeat IPC: 2.83312 cumulative IPC: 2.83272 (Simulation time: 0 hr 1 min 9 sec) 
Heartbeat CPU 0 instructions: 30000002 cycles: 10590216 heartbeat IPC: 2.83297 cumulative IPC: 2.8328 (Simulation time: 0 hr 1 min 44 sec) 
Heartbeat CPU 0 instructions: 40000003 cycles: 14115995 heartbeat IPC: 2.83625 cumulative IPC: 2.83367 (Simulation time: 0 hr 2 min 18 sec) 
Heartbeat CPU 0 instructions: 50000000 cycles: 17643828 heartbeat IPC: 2.8346 cumulative IPC: 2.83385 (Simulation time: 0 hr 2 min 51 sec) 

Warmup complete CPU 0 instructions: 50000004 cycles: 17643829 (Simulation time: 0 hr 2 min 51 sec) 

Heartbeat CPU 0 instructions: 60000000 cycles: 30753009 heartbeat IPC: 0.762824 cumulative IPC: 0.762824 (Simulation time: 0 hr 3 min 17 sec) 
Heartbeat CPU 0 instructions: 70000002 cycles: 43978099 heartbeat IPC: 0.756139 cumulative IPC: 0.759467 (Simulation time: 0 hr 3 min 42 sec) 
*** Reached end of trace for Core: 0 Repeating trace: /home/xubinfang/Desktop/ChampSim/dpc3_traces/server_031.champsimtrace.xz
Heartbeat CPU 0 instructions: 80000000 cycles: 56990276 heartbeat IPC: 0.768511 cumulative IPC: 0.762458 (Simulation time: 0 hr 4 min 6 sec) 
Heartbeat CPU 0 instructions: 90000001 cycles: 70110511 heartbeat IPC: 0.762182 cumulative IPC: 0.762389 (Simulation time: 0 hr 4 min 32 sec) 
Heartbeat CPU 0 instructions: 100000000 cycles: 83184920 heartbeat IPC: 0.764853 cumulative IPC: 0.76288 (Simulation time: 0 hr 5 min 0 sec) 
Finished CPU 0 instructions: 50000000 cycles: 65541096 cumulative IPC: 0.76288 (Simulation time: 0 hr 5 min 0 sec) 

ChampSim completed all CPUs

Region of Interest Statistics

CPU 0 cumulative IPC: 0.76288 instructions: 50000000 cycles: 65541096
L1D TOTAL     ACCESS:   23061898  HIT:   21154171  MISS:    1907727
L1D LOAD      ACCESS:    8456617  HIT:    7602301  MISS:     854316
L1D RFO       ACCESS:    6446902  HIT:    6153716  MISS:     293186
L1D PREFETCH  ACCESS:    8158379  HIT:    7398154  MISS:     760225
L1D WRITEBACK ACCESS:          0  HIT:          0  MISS:          0
L1D PREFETCH  REQUESTED:    8519020  ISSUED:    8442758  USEFUL:     191913  USELESS:     568313
L1D AVERAGE MISS LATENCY: 21.5367 cycles
L1I TOTAL     ACCESS:    9611585  HIT:    6614813  MISS:    2996772
L1I LOAD      ACCESS:    9611585  HIT:    6614813  MISS:    2996772
L1I RFO       ACCESS:          0  HIT:          0  MISS:          0
L1I PREFETCH  ACCESS:          0  HIT:          0  MISS:          0
L1I WRITEBACK ACCESS:          0  HIT:          0  MISS:          0
L1I PREFETCH  REQUESTED:          0  ISSUED:          0  USEFUL:          0  USELESS:          0
L1I AVERAGE MISS LATENCY: 16.9844 cycles
L2C TOTAL     ACCESS:    8267781  HIT:    7732289  MISS:     535492
L2C LOAD      ACCESS:    3772710  HIT:    3395835  MISS:     376875
L2C RFO       ACCESS:     290271  HIT:     252292  MISS:      37979
L2C PREFETCH  ACCESS:    3587853  HIT:    3467514  MISS:     120339
L2C WRITEBACK ACCESS:     616947  HIT:     616648  MISS:        299
L2C PREFETCH  REQUESTED:    5558065  ISSUED:    5557822  USEFUL:       7027  USELESS:     113138
L2C AVERAGE MISS LATENCY: 43.8861 cycles
LLC TOTAL     ACCESS:    2565883  HIT:    2481184  MISS:      84699
LLC LOAD      ACCESS:     375653  HIT:     355197  MISS:      20456
LLC RFO       ACCESS:      37978  HIT:      33775  MISS:       4203
LLC PREFETCH  ACCESS:    2082584  HIT:    2023200  MISS:      59384
LLC WRITEBACK ACCESS:      69668  HIT:      69012  MISS:        656
LLC PREFETCH  REQUESTED:          0  ISSUED:          0  USEFUL:       3209  USELESS:      54666
LLC AVERAGE MISS LATENCY: 157.883 cycles
Major fault: 0 Minor fault: 6041
CPU 0 L1D next line prefetcher final stats

DRAM Statistics
 CHANNEL 0
 RQ ROW_BUFFER_HIT:      23722  ROW_BUFFER_MISS:      60316
 DBUS_CONGESTED:      34079
 WQ ROW_BUFFER_HIT:        767  ROW_BUFFER_MISS:       5470  FULL:          0

 AVG_CONGESTED_CYCLE: 5

CPU 0 Branch Prediction Accuracy: 91.822% MPKI: 15.2833 Average ROB Occupancy at Mispredict: 27.0906

Branch types
NOT_BRANCH: 40655483 81.311%
BRANCH_DIRECT_JUMP: 546482 1.09296%
BRANCH_INDIRECT: 172432 0.344864%
BRANCH_CONDITIONAL: 6207553 12.4151%
BRANCH_DIRECT_CALL: 1018496 2.03699%
BRANCH_INDIRECT_CALL: 190373 0.380746%
BRANCH_RETURN: 1208854 2.41771%
BRANCH_OTHER: 0 0%

