Initialize SIGNATURE TABLE
ST_SET: 1
ST_WAY: 256
ST_TAG_BIT: 16
ST_TAG_MASK: ffff

Initialize PATTERN TABLE
PT_SET: 512
PT_WAY: 4
SIG_DELTA_BIT: 7
C_SIG_BIT: 4
C_DELTA_BIT: 4

Initialize PREFETCH FILTER
FILTER_SET: 1024

*** ChampSim Multicore Out-of-Order Simulator ***

Warmup Instructions: 50000000
Simulation Instructions: 50000000
Number of CPUs: 1
LLC sets: 2048
LLC ways: 16
Off-chip DRAM Size: 4096 MB Channels: 1 Width: 64-bit Data Rate: 3200 MT/s

CPU 0 runs /home/xubinfang/Desktop/ChampSim/dpc3_traces/server_001.champsimtrace.xz
CPU 0 Bimodal branch predictor
CPU 0 L1D next line prefetcher
Heartbeat CPU 0 instructions: 10000002 cycles: 3155554 heartbeat IPC: 3.16902 cumulative IPC: 3.16902 (Simulation time: 0 hr 0 min 33 sec) 
Heartbeat CPU 0 instructions: 20000000 cycles: 6370807 heartbeat IPC: 3.11017 cumulative IPC: 3.13932 (Simulation time: 0 hr 1 min 8 sec) 
Heartbeat CPU 0 instructions: 30000003 cycles: 9557602 heartbeat IPC: 3.13795 cumulative IPC: 3.13886 (Simulation time: 0 hr 1 min 42 sec) 
Heartbeat CPU 0 instructions: 40000002 cycles: 12765580 heartbeat IPC: 3.11723 cumulative IPC: 3.13343 (Simulation time: 0 hr 2 min 16 sec) 
Heartbeat CPU 0 instructions: 50000003 cycles: 15985364 heartbeat IPC: 3.1058 cumulative IPC: 3.12786 (Simulation time: 0 hr 2 min 51 sec) 

Warmup complete CPU 0 instructions: 50000003 cycles: 15985364 (Simulation time: 0 hr 2 min 51 sec) 

Heartbeat CPU 0 instructions: 60000001 cycles: 25381529 heartbeat IPC: 1.06426 cumulative IPC: 1.06426 (Simulation time: 0 hr 3 min 21 sec) 
Heartbeat CPU 0 instructions: 70000001 cycles: 34103324 heartbeat IPC: 1.14655 cumulative IPC: 1.10388 (Simulation time: 0 hr 3 min 51 sec) 
Heartbeat CPU 0 instructions: 80000002 cycles: 43016132 heartbeat IPC: 1.12198 cumulative IPC: 1.10985 (Simulation time: 0 hr 4 min 23 sec) 
Heartbeat CPU 0 instructions: 90000002 cycles: 52411874 heartbeat IPC: 1.06431 cumulative IPC: 1.0981 (Simulation time: 0 hr 4 min 55 sec) 
Heartbeat CPU 0 instructions: 100000003 cycles: 61150249 heartbeat IPC: 1.14438 cumulative IPC: 1.10705 (Simulation time: 0 hr 5 min 21 sec) 
Finished CPU 0 instructions: 50000000 cycles: 45164885 cumulative IPC: 1.10705 (Simulation time: 0 hr 5 min 21 sec) 

ChampSim completed all CPUs

Region of Interest Statistics

CPU 0 cumulative IPC: 1.10705 instructions: 50000000 cycles: 45164885
L1D TOTAL     ACCESS:   18642512  HIT:   18131058  MISS:     511454
L1D LOAD      ACCESS:    6949571  HIT:    6752097  MISS:     197474
L1D RFO       ACCESS:    5083645  HIT:    5001043  MISS:      82602
L1D PREFETCH  ACCESS:    6609296  HIT:    6377918  MISS:     231378
L1D WRITEBACK ACCESS:          0  HIT:          0  MISS:          0
L1D PREFETCH  REQUESTED:    6977043  ISSUED:    6777367  USEFUL:     139121  USELESS:      92385
L1D AVERAGE MISS LATENCY: 89.6868 cycles
L1I TOTAL     ACCESS:    8258015  HIT:    7756076  MISS:     501939
L1I LOAD      ACCESS:    8258015  HIT:    7756076  MISS:     501939
L1I RFO       ACCESS:          0  HIT:          0  MISS:          0
L1I PREFETCH  ACCESS:          0  HIT:          0  MISS:          0
L1I WRITEBACK ACCESS:          0  HIT:          0  MISS:          0
L1I PREFETCH  REQUESTED:          0  ISSUED:          0  USEFUL:          0  USELESS:          0
L1I AVERAGE MISS LATENCY: 30.9049 cycles
L2C TOTAL     ACCESS:    1808649  HIT:    1347375  MISS:     461274
L2C LOAD      ACCESS:     661843  HIT:     451109  MISS:     210734
L2C RFO       ACCESS:      81220  HIT:      10599  MISS:      70621
L2C PREFETCH  ACCESS:     857710  HIT:     678211  MISS:     179499
L2C WRITEBACK ACCESS:     207876  HIT:     207456  MISS:        420
L2C PREFETCH  REQUESTED:    1574093  ISSUED:    1573971  USEFUL:      25397  USELESS:     152208
L2C AVERAGE MISS LATENCY: 106.193 cycles
LLC TOTAL     ACCESS:    1250293  HIT:     916220  MISS:     334073
LLC LOAD      ACCESS:     204933  HIT:     152328  MISS:      52605
LLC RFO       ACCESS:      70620  HIT:       6506  MISS:      64114
LLC PREFETCH  ACCESS:     807429  HIT:     590454  MISS:     216975
LLC WRITEBACK ACCESS:     167311  HIT:     166932  MISS:        379
LLC PREFETCH  REQUESTED:          0  ISSUED:          0  USEFUL:      42868  USELESS:     170977
LLC AVERAGE MISS LATENCY: 195.983 cycles
Major fault: 0 Minor fault: 16697
CPU 0 L1D next line prefetcher final stats

DRAM Statistics
 CHANNEL 0
 RQ ROW_BUFFER_HIT:      95605  ROW_BUFFER_MISS:     238076
 DBUS_CONGESTED:     213336
 WQ ROW_BUFFER_HIT:      36736  ROW_BUFFER_MISS:     122543  FULL:          0

 AVG_CONGESTED_CYCLE: 6

CPU 0 Branch Prediction Accuracy: 95.5843% MPKI: 7.52998 Average ROB Occupancy at Mispredict: 48.6518

Branch types
NOT_BRANCH: 41473342 82.9467%
BRANCH_DIRECT_JUMP: 347938 0.695876%
BRANCH_INDIRECT: 148210 0.29642%
BRANCH_CONDITIONAL: 6817239 13.6345%
BRANCH_DIRECT_CALL: 570721 1.14144%
BRANCH_INDIRECT_CALL: 25133 0.050266%
BRANCH_RETURN: 617119 1.23424%
BRANCH_OTHER: 0 0%

