Initialize SIGNATURE TABLE
ST_SET: 1
ST_WAY: 256
ST_TAG_BIT: 16
ST_TAG_MASK: ffff

Initialize PATTERN TABLE
PT_SET: 512
PT_WAY: 4
SIG_DELTA_BIT: 7
C_SIG_BIT: 4
C_DELTA_BIT: 4

Initialize PREFETCH FILTER
FILTER_SET: 1024

*** ChampSim Multicore Out-of-Order Simulator ***

Warmup Instructions: 50000000
Simulation Instructions: 50000000
Number of CPUs: 1
LLC sets: 2048
LLC ways: 16
Off-chip DRAM Size: 4096 MB Channels: 1 Width: 64-bit Data Rate: 3200 MT/s

CPU 0 runs /home/xubinfang/Desktop/ChampSim/dpc3_traces/server_039.champsimtrace.xz
CPU 0 Bimodal branch predictor
CPU 0 L1D next line prefetcher
Heartbeat CPU 0 instructions: 10000003 cycles: 3453290 heartbeat IPC: 2.89579 cumulative IPC: 2.89579 (Simulation time: 0 hr 0 min 30 sec) 
Heartbeat CPU 0 instructions: 20000002 cycles: 6899810 heartbeat IPC: 2.90148 cumulative IPC: 2.89863 (Simulation time: 0 hr 1 min 3 sec) 
Heartbeat CPU 0 instructions: 30000001 cycles: 10348015 heartbeat IPC: 2.90006 cumulative IPC: 2.89911 (Simulation time: 0 hr 1 min 32 sec) 
Heartbeat CPU 0 instructions: 40000002 cycles: 13791564 heartbeat IPC: 2.90398 cumulative IPC: 2.90032 (Simulation time: 0 hr 2 min 4 sec) 
Heartbeat CPU 0 instructions: 50000001 cycles: 17234497 heartbeat IPC: 2.9045 cumulative IPC: 2.90116 (Simulation time: 0 hr 2 min 32 sec) 

Warmup complete CPU 0 instructions: 50000001 cycles: 17234497 (Simulation time: 0 hr 2 min 32 sec) 

Heartbeat CPU 0 instructions: 60000000 cycles: 28882621 heartbeat IPC: 0.858507 cumulative IPC: 0.858507 (Simulation time: 0 hr 2 min 53 sec) 
Heartbeat CPU 0 instructions: 70000000 cycles: 40528082 heartbeat IPC: 0.858704 cumulative IPC: 0.858605 (Simulation time: 0 hr 3 min 12 sec) 
Heartbeat CPU 0 instructions: 80000000 cycles: 52172856 heartbeat IPC: 0.858754 cumulative IPC: 0.858655 (Simulation time: 0 hr 3 min 32 sec) 
Heartbeat CPU 0 instructions: 90000001 cycles: 63816050 heartbeat IPC: 0.858871 cumulative IPC: 0.858709 (Simulation time: 0 hr 3 min 51 sec) 
Heartbeat CPU 0 instructions: 100000002 cycles: 75458174 heartbeat IPC: 0.85895 cumulative IPC: 0.858757 (Simulation time: 0 hr 4 min 9 sec) 
Finished CPU 0 instructions: 50000001 cycles: 58223677 cumulative IPC: 0.858757 (Simulation time: 0 hr 4 min 9 sec) 

ChampSim completed all CPUs

Region of Interest Statistics

CPU 0 cumulative IPC: 0.858757 instructions: 50000001 cycles: 58223677
L1D TOTAL     ACCESS:   23858627  HIT:   23358679  MISS:     499948
L1D LOAD      ACCESS:    8398899  HIT:    8176737  MISS:     222162
L1D RFO       ACCESS:    7202276  HIT:    7132113  MISS:      70163
L1D PREFETCH  ACCESS:    8257452  HIT:    8049829  MISS:     207623
L1D WRITEBACK ACCESS:          0  HIT:          0  MISS:          0
L1D PREFETCH  REQUESTED:    8411261  ISSUED:    8332696  USEFUL:      48549  USELESS:     159077
L1D AVERAGE MISS LATENCY: 14.7148 cycles
L1I TOTAL     ACCESS:    9298185  HIT:    5210885  MISS:    4087300
L1I LOAD      ACCESS:    9298185  HIT:    5210885  MISS:    4087300
L1I RFO       ACCESS:          0  HIT:          0  MISS:          0
L1I PREFETCH  ACCESS:          0  HIT:          0  MISS:          0
L1I WRITEBACK ACCESS:          0  HIT:          0  MISS:          0
L1I PREFETCH  REQUESTED:          0  ISSUED:          0  USEFUL:          0  USELESS:          0
L1I AVERAGE MISS LATENCY: 14.0677 cycles
L2C TOTAL     ACCESS:    7987083  HIT:    7987043  MISS:         40
L2C LOAD      ACCESS:    4298910  HIT:    4298907  MISS:          3
L2C RFO       ACCESS:      66933  HIT:      66933  MISS:          0
L2C PREFETCH  ACCESS:    3439524  HIT:    3439487  MISS:         37
L2C WRITEBACK ACCESS:     181716  HIT:     181716  MISS:          0
L2C PREFETCH  REQUESTED:    4887476  ISSUED:    4887476  USEFUL:          1  USELESS:          0
L2C AVERAGE MISS LATENCY: 76.95 cycles
LLC TOTAL     ACCESS:    1130213  HIT:    1130057  MISS:        156
LLC LOAD      ACCESS:          3  HIT:          1  MISS:          2
LLC RFO       ACCESS:          0  HIT:          0  MISS:          0
LLC PREFETCH  ACCESS:    1130210  HIT:    1130056  MISS:        154
LLC WRITEBACK ACCESS:          0  HIT:          0  MISS:          0
LLC PREFETCH  REQUESTED:          0  ISSUED:          0  USEFUL:          1  USELESS:          0
LLC AVERAGE MISS LATENCY: 172.583 cycles
Major fault: 0 Minor fault: 356
CPU 0 L1D next line prefetcher final stats

DRAM Statistics
 CHANNEL 0
 RQ ROW_BUFFER_HIT:         17  ROW_BUFFER_MISS:        139
 DBUS_CONGESTED:         27
 WQ ROW_BUFFER_HIT:          0  ROW_BUFFER_MISS:          0  FULL:          0

 AVG_CONGESTED_CYCLE: 6

CPU 0 Branch Prediction Accuracy: 95.5926% MPKI: 7.49694 Average ROB Occupancy at Mispredict: 18.2389

Branch types
NOT_BRANCH: 41494779 82.9896%
BRANCH_DIRECT_JUMP: 491305 0.98261%
BRANCH_INDIRECT: 0 0%
BRANCH_CONDITIONAL: 5595231 11.1905%
BRANCH_DIRECT_CALL: 1028406 2.05681%
BRANCH_INDIRECT_CALL: 180755 0.36151%
BRANCH_RETURN: 1209170 2.41834%
BRANCH_OTHER: 0 0%

