Initialize SIGNATURE TABLE
ST_SET: 1
ST_WAY: 256
ST_TAG_BIT: 16
ST_TAG_MASK: ffff

Initialize PATTERN TABLE
PT_SET: 512
PT_WAY: 4
SIG_DELTA_BIT: 7
C_SIG_BIT: 4
C_DELTA_BIT: 4

Initialize PREFETCH FILTER
FILTER_SET: 1024

*** ChampSim Multicore Out-of-Order Simulator ***

Warmup Instructions: 50000000
Simulation Instructions: 50000000
Number of CPUs: 1
LLC sets: 2048
LLC ways: 16
Off-chip DRAM Size: 4096 MB Channels: 1 Width: 64-bit Data Rate: 3200 MT/s

CPU 0 runs /home/xubinfang/Desktop/ChampSim/dpc3_traces/server_030.champsimtrace.xz
CPU 0 Bimodal branch predictor
CPU 0 L1D next line prefetcher
Heartbeat CPU 0 instructions: 10000003 cycles: 3520191 heartbeat IPC: 2.84076 cumulative IPC: 2.84076 (Simulation time: 0 hr 0 min 35 sec) 
Heartbeat CPU 0 instructions: 20000003 cycles: 7039743 heartbeat IPC: 2.84127 cumulative IPC: 2.84101 (Simulation time: 0 hr 1 min 5 sec) 
Heartbeat CPU 0 instructions: 30000000 cycles: 10558202 heartbeat IPC: 2.84215 cumulative IPC: 2.84139 (Simulation time: 0 hr 1 min 36 sec) 
Heartbeat CPU 0 instructions: 40000002 cycles: 14077069 heartbeat IPC: 2.84182 cumulative IPC: 2.8415 (Simulation time: 0 hr 2 min 9 sec) 
Heartbeat CPU 0 instructions: 50000002 cycles: 17597824 heartbeat IPC: 2.8403 cumulative IPC: 2.84126 (Simulation time: 0 hr 2 min 44 sec) 

Warmup complete CPU 0 instructions: 50000002 cycles: 17597824 (Simulation time: 0 hr 2 min 44 sec) 

Heartbeat CPU 0 instructions: 60000000 cycles: 30313588 heartbeat IPC: 0.786425 cumulative IPC: 0.786425 (Simulation time: 0 hr 3 min 10 sec) 
Heartbeat CPU 0 instructions: 70000000 cycles: 43042131 heartbeat IPC: 0.785636 cumulative IPC: 0.78603 (Simulation time: 0 hr 3 min 37 sec) 
Heartbeat CPU 0 instructions: 80000001 cycles: 55726121 heartbeat IPC: 0.788396 cumulative IPC: 0.786817 (Simulation time: 0 hr 4 min 4 sec) 
*** Reached end of trace for Core: 0 Repeating trace: /home/xubinfang/Desktop/ChampSim/dpc3_traces/server_030.champsimtrace.xz
Heartbeat CPU 0 instructions: 90000002 cycles: 68474547 heartbeat IPC: 0.784411 cumulative IPC: 0.786214 (Simulation time: 0 hr 4 min 29 sec) 
Heartbeat CPU 0 instructions: 100000000 cycles: 81184101 heartbeat IPC: 0.78681 cumulative IPC: 0.786333 (Simulation time: 0 hr 4 min 56 sec) 
Finished CPU 0 instructions: 50000002 cycles: 63586278 cumulative IPC: 0.786333 (Simulation time: 0 hr 4 min 56 sec) 

ChampSim completed all CPUs

Region of Interest Statistics

CPU 0 cumulative IPC: 0.786333 instructions: 50000002 cycles: 63586278
L1D TOTAL     ACCESS:   22621760  HIT:   20541899  MISS:    2079861
L1D LOAD      ACCESS:    8420851  HIT:    7385200  MISS:    1035651
L1D RFO       ACCESS:    6285172  HIT:    5998942  MISS:     286230
L1D PREFETCH  ACCESS:    7915737  HIT:    7157757  MISS:     757980
L1D WRITEBACK ACCESS:          0  HIT:          0  MISS:          0
L1D PREFETCH  REQUESTED:    8469848  ISSUED:    8368813  USEFUL:     199964  USELESS:     558110
L1D AVERAGE MISS LATENCY: 17.9544 cycles
L1I TOTAL     ACCESS:    9699199  HIT:    6755659  MISS:    2943540
L1I LOAD      ACCESS:    9699199  HIT:    6755659  MISS:    2943540
L1I RFO       ACCESS:          0  HIT:          0  MISS:          0
L1I PREFETCH  ACCESS:          0  HIT:          0  MISS:          0
L1I WRITEBACK ACCESS:          0  HIT:          0  MISS:          0
L1I PREFETCH  REQUESTED:          0  ISSUED:          0  USEFUL:          0  USELESS:          0
L1I AVERAGE MISS LATENCY: 17.4597 cycles
L2C TOTAL     ACCESS:    8478546  HIT:    7850173  MISS:     628373
L2C LOAD      ACCESS:    3786864  HIT:    3351835  MISS:     435029
L2C RFO       ACCESS:     283919  HIT:     224884  MISS:      59035
L2C PREFETCH  ACCESS:    3791980  HIT:    3660061  MISS:     131919
L2C WRITEBACK ACCESS:     615783  HIT:     613393  MISS:       2390
L2C PREFETCH  REQUESTED:    5680864  ISSUED:    5680827  USEFUL:      11369  USELESS:     120289
L2C AVERAGE MISS LATENCY: 32.197 cycles
LLC TOTAL     ACCESS:    2337382  HIT:    2318624  MISS:      18758
LLC LOAD      ACCESS:     433708  HIT:     430706  MISS:       3002
LLC RFO       ACCESS:      59027  HIT:      57255  MISS:       1772
LLC PREFETCH  ACCESS:    1739752  HIT:    1725854  MISS:      13898
LLC WRITEBACK ACCESS:     104895  HIT:     104809  MISS:         86
LLC PREFETCH  REQUESTED:          0  ISSUED:          0  USEFUL:        885  USELESS:      12910
LLC AVERAGE MISS LATENCY: 142.3 cycles
Major fault: 0 Minor fault: 2039
CPU 0 L1D next line prefetcher final stats

DRAM Statistics
 CHANNEL 0
 RQ ROW_BUFFER_HIT:       6725  ROW_BUFFER_MISS:      11947
 DBUS_CONGESTED:       6469
 WQ ROW_BUFFER_HIT:        134  ROW_BUFFER_MISS:       1955  FULL:          0

 AVG_CONGESTED_CYCLE: 5

CPU 0 Branch Prediction Accuracy: 92.4795% MPKI: 14.0962 Average ROB Occupancy at Mispredict: 24.4407

Branch types
NOT_BRANCH: 40627795 81.2556%
BRANCH_DIRECT_JUMP: 490939 0.981878%
BRANCH_INDIRECT: 175853 0.351706%
BRANCH_CONDITIONAL: 6321387 12.6428%
BRANCH_DIRECT_CALL: 1002065 2.00413%
BRANCH_INDIRECT_CALL: 189782 0.379564%
BRANCH_RETURN: 1191846 2.38369%
BRANCH_OTHER: 0 0%

