Initialize SIGNATURE TABLE
ST_SET: 1
ST_WAY: 256
ST_TAG_BIT: 16
ST_TAG_MASK: ffff

Initialize PATTERN TABLE
PT_SET: 512
PT_WAY: 4
SIG_DELTA_BIT: 7
C_SIG_BIT: 4
C_DELTA_BIT: 4

Initialize PREFETCH FILTER
FILTER_SET: 1024

*** ChampSim Multicore Out-of-Order Simulator ***

Warmup Instructions: 50000000
Simulation Instructions: 50000000
Number of CPUs: 1
LLC sets: 2048
LLC ways: 16
Off-chip DRAM Size: 4096 MB Channels: 1 Width: 64-bit Data Rate: 3200 MT/s

CPU 0 runs /home/xubinfang/Desktop/ChampSim/dpc3_traces/server_019.champsimtrace.xz
CPU 0 Bimodal branch predictor
CPU 0 L1D next line prefetcher
Heartbeat CPU 0 instructions: 10000002 cycles: 3628396 heartbeat IPC: 2.75604 cumulative IPC: 2.75604 (Simulation time: 0 hr 0 min 42 sec) 
Heartbeat CPU 0 instructions: 20000003 cycles: 7258160 heartbeat IPC: 2.755 cumulative IPC: 2.75552 (Simulation time: 0 hr 1 min 24 sec) 
Heartbeat CPU 0 instructions: 30000002 cycles: 10886601 heartbeat IPC: 2.756 cumulative IPC: 2.75568 (Simulation time: 0 hr 2 min 4 sec) 
Heartbeat CPU 0 instructions: 40000002 cycles: 14527220 heartbeat IPC: 2.74679 cumulative IPC: 2.75345 (Simulation time: 0 hr 2 min 39 sec) 
Heartbeat CPU 0 instructions: 50000001 cycles: 18156360 heartbeat IPC: 2.75547 cumulative IPC: 2.75386 (Simulation time: 0 hr 3 min 19 sec) 

Warmup complete CPU 0 instructions: 50000001 cycles: 18156360 (Simulation time: 0 hr 3 min 19 sec) 

Heartbeat CPU 0 instructions: 60000000 cycles: 41023858 heartbeat IPC: 0.437302 cumulative IPC: 0.437302 (Simulation time: 0 hr 4 min 4 sec) 
Heartbeat CPU 0 instructions: 70000002 cycles: 66440203 heartbeat IPC: 0.393448 cumulative IPC: 0.414217 (Simulation time: 0 hr 4 min 48 sec) 
Heartbeat CPU 0 instructions: 80000002 cycles: 89463098 heartbeat IPC: 0.43435 cumulative IPC: 0.420718 (Simulation time: 0 hr 5 min 27 sec) 
Heartbeat CPU 0 instructions: 90000003 cycles: 110206893 heartbeat IPC: 0.482072 cumulative IPC: 0.434544 (Simulation time: 0 hr 6 min 8 sec) 
Heartbeat CPU 0 instructions: 100000002 cycles: 130892271 heartbeat IPC: 0.483433 cumulative IPC: 0.443514 (Simulation time: 0 hr 6 min 50 sec) 
Finished CPU 0 instructions: 50000001 cycles: 112735911 cumulative IPC: 0.443514 (Simulation time: 0 hr 6 min 50 sec) 

ChampSim completed all CPUs

Region of Interest Statistics

CPU 0 cumulative IPC: 0.443514 instructions: 50000001 cycles: 112735911
L1D TOTAL     ACCESS:   20078301  HIT:   17855117  MISS:    2223184
L1D LOAD      ACCESS:    7816494  HIT:    7062491  MISS:     754003
L1D RFO       ACCESS:    5566277  HIT:    4663764  MISS:     902513
L1D PREFETCH  ACCESS:    6695530  HIT:    6128862  MISS:     566668
L1D WRITEBACK ACCESS:          0  HIT:          0  MISS:          0
L1D PREFETCH  REQUESTED:    7861822  ISSUED:    7711721  USEFUL:     197153  USELESS:     369425
L1D AVERAGE MISS LATENCY: 178.966 cycles
L1I TOTAL     ACCESS:    9553092  HIT:    7405270  MISS:    2147822
L1I LOAD      ACCESS:    9553092  HIT:    7405270  MISS:    2147822
L1I RFO       ACCESS:          0  HIT:          0  MISS:          0
L1I PREFETCH  ACCESS:          0  HIT:          0  MISS:          0
L1I WRITEBACK ACCESS:          0  HIT:          0  MISS:          0
L1I PREFETCH  REQUESTED:          0  ISSUED:          0  USEFUL:          0  USELESS:          0
L1I AVERAGE MISS LATENCY: 17.8726 cycles
L2C TOTAL     ACCESS:    7491831  HIT:    5602173  MISS:    1889658
L2C LOAD      ACCESS:    2698686  HIT:    2253283  MISS:     445403
L2C RFO       ACCESS:     902113  HIT:      18646  MISS:     883467
L2C PREFETCH  ACCESS:    2716241  HIT:    2157783  MISS:     558458
L2C WRITEBACK ACCESS:    1174791  HIT:    1172461  MISS:       2330
L2C PREFETCH  REQUESTED:    3873321  ISSUED:    3870960  USEFUL:      22368  USELESS:     535428
L2C AVERAGE MISS LATENCY: 212.893 cycles
LLC TOTAL     ACCESS:    4193143  HIT:    2573355  MISS:    1619788
LLC LOAD      ACCESS:     444917  HIT:     262892  MISS:     182025
LLC RFO       ACCESS:     883462  HIT:     114655  MISS:     768807
LLC PREFETCH  ACCESS:    1754332  HIT:    1087683  MISS:     666649
LLC WRITEBACK ACCESS:    1110432  HIT:    1108125  MISS:       2307
LLC PREFETCH  REQUESTED:          0  ISSUED:          0  USEFUL:      57816  USELESS:     608308
LLC AVERAGE MISS LATENCY: 259.395 cycles
Major fault: 0 Minor fault: 25691
CPU 0 L1D next line prefetcher final stats

DRAM Statistics
 CHANNEL 0
 RQ ROW_BUFFER_HIT:     399101  ROW_BUFFER_MISS:    1218212
 DBUS_CONGESTED:    1557421
 WQ ROW_BUFFER_HIT:     265109  ROW_BUFFER_MISS:     669197  FULL:          0

 AVG_CONGESTED_CYCLE: 6

CPU 0 Branch Prediction Accuracy: 95.5087% MPKI: 7.59836 Average ROB Occupancy at Mispredict: 76.4709

Branch types
NOT_BRANCH: 41540669 83.0813%
BRANCH_DIRECT_JUMP: 462381 0.924762%
BRANCH_INDIRECT: 45460 0.09092%
BRANCH_CONDITIONAL: 6209251 12.4185%
BRANCH_DIRECT_CALL: 666238 1.33248%
BRANCH_INDIRECT_CALL: 204728 0.409456%
BRANCH_RETURN: 870972 1.74194%
BRANCH_OTHER: 0 0%

