Initialize SIGNATURE TABLE
ST_SET: 1
ST_WAY: 256
ST_TAG_BIT: 16
ST_TAG_MASK: ffff

Initialize PATTERN TABLE
PT_SET: 512
PT_WAY: 4
SIG_DELTA_BIT: 7
C_SIG_BIT: 4
C_DELTA_BIT: 4

Initialize PREFETCH FILTER
FILTER_SET: 1024

*** ChampSim Multicore Out-of-Order Simulator ***

Warmup Instructions: 50000000
Simulation Instructions: 50000000
Number of CPUs: 1
LLC sets: 2048
LLC ways: 16
Off-chip DRAM Size: 4096 MB Channels: 1 Width: 64-bit Data Rate: 3200 MT/s

CPU 0 runs /home/xubinfang/Desktop/ChampSim/dpc3_traces/server_025.champsimtrace.xz
CPU 0 Bimodal branch predictor
CPU 0 L1D next line prefetcher
Heartbeat CPU 0 instructions: 10000003 cycles: 3535248 heartbeat IPC: 2.82866 cumulative IPC: 2.82866 (Simulation time: 0 hr 0 min 33 sec) 
Heartbeat CPU 0 instructions: 20000000 cycles: 7077341 heartbeat IPC: 2.82319 cumulative IPC: 2.82592 (Simulation time: 0 hr 1 min 8 sec) 
Heartbeat CPU 0 instructions: 30000001 cycles: 10611123 heartbeat IPC: 2.82983 cumulative IPC: 2.82722 (Simulation time: 0 hr 1 min 39 sec) 
Heartbeat CPU 0 instructions: 40000003 cycles: 14150964 heartbeat IPC: 2.82499 cumulative IPC: 2.82666 (Simulation time: 0 hr 2 min 12 sec) 
Heartbeat CPU 0 instructions: 50000001 cycles: 17688353 heartbeat IPC: 2.82694 cumulative IPC: 2.82672 (Simulation time: 0 hr 2 min 44 sec) 

Warmup complete CPU 0 instructions: 50000001 cycles: 17688353 (Simulation time: 0 hr 2 min 44 sec) 

Heartbeat CPU 0 instructions: 60000002 cycles: 30457726 heartbeat IPC: 0.783124 cumulative IPC: 0.783124 (Simulation time: 0 hr 3 min 10 sec) 
Heartbeat CPU 0 instructions: 70000000 cycles: 43413689 heartbeat IPC: 0.771845 cumulative IPC: 0.777444 (Simulation time: 0 hr 3 min 35 sec) 
Heartbeat CPU 0 instructions: 80000000 cycles: 56198138 heartbeat IPC: 0.7822 cumulative IPC: 0.779023 (Simulation time: 0 hr 3 min 58 sec) 
Heartbeat CPU 0 instructions: 90000001 cycles: 67421171 heartbeat IPC: 0.891025 cumulative IPC: 0.804298 (Simulation time: 0 hr 4 min 24 sec) 
Heartbeat CPU 0 instructions: 100000001 cycles: 77260301 heartbeat IPC: 1.01635 cumulative IPC: 0.839321 (Simulation time: 0 hr 4 min 49 sec) 
Finished CPU 0 instructions: 50000000 cycles: 59571948 cumulative IPC: 0.839321 (Simulation time: 0 hr 4 min 49 sec) 

ChampSim completed all CPUs

Region of Interest Statistics

CPU 0 cumulative IPC: 0.839321 instructions: 50000000 cycles: 59571948
L1D TOTAL     ACCESS:   23039414  HIT:   21611415  MISS:    1427999
L1D LOAD      ACCESS:    8425102  HIT:    7821247  MISS:     603855
L1D RFO       ACCESS:    6475766  HIT:    6226766  MISS:     249000
L1D PREFETCH  ACCESS:    8138546  HIT:    7563402  MISS:     575144
L1D WRITEBACK ACCESS:          0  HIT:          0  MISS:          0
L1D PREFETCH  REQUESTED:    8463530  ISSUED:    8306090  USEFUL:     146155  USELESS:     428984
L1D AVERAGE MISS LATENCY: 22.1186 cycles
L1I TOTAL     ACCESS:    9442518  HIT:    7014900  MISS:    2427618
L1I LOAD      ACCESS:    9442518  HIT:    7014900  MISS:    2427618
L1I RFO       ACCESS:          0  HIT:          0  MISS:          0
L1I PREFETCH  ACCESS:          0  HIT:          0  MISS:          0
L1I WRITEBACK ACCESS:          0  HIT:          0  MISS:          0
L1I PREFETCH  REQUESTED:          0  ISSUED:          0  USEFUL:          0  USELESS:          0
L1I AVERAGE MISS LATENCY: 18.5425 cycles
L2C TOTAL     ACCESS:    6269786  HIT:    5646987  MISS:     622799
L2C LOAD      ACCESS:    2992158  HIT:    2548240  MISS:     443918
L2C RFO       ACCESS:     246734  HIT:     177053  MISS:      69681
L2C PREFETCH  ACCESS:    2534168  HIT:    2427806  MISS:     106362
L2C WRITEBACK ACCESS:     496726  HIT:     493888  MISS:       2838
L2C PREFETCH  REQUESTED:    3714202  ISSUED:    3714123  USEFUL:       9425  USELESS:      96855
L2C AVERAGE MISS LATENCY: 35.8272 cycles
LLC TOTAL     ACCESS:    1986698  HIT:    1958649  MISS:      28049
LLC LOAD      ACCESS:     443409  HIT:     439269  MISS:       4140
LLC RFO       ACCESS:      69681  HIT:      58918  MISS:      10763
LLC PREFETCH  ACCESS:    1356055  HIT:    1343142  MISS:      12913
LLC WRITEBACK ACCESS:     117553  HIT:     117320  MISS:        233
LLC PREFETCH  REQUESTED:          0  ISSUED:          0  USEFUL:       1402  USELESS:      11871
LLC AVERAGE MISS LATENCY: 176.951 cycles
Major fault: 0 Minor fault: 2457
CPU 0 L1D next line prefetcher final stats

DRAM Statistics
 CHANNEL 0
 RQ ROW_BUFFER_HIT:       9409  ROW_BUFFER_MISS:      18400
 DBUS_CONGESTED:      18582
 WQ ROW_BUFFER_HIT:       1288  ROW_BUFFER_MISS:      11221  FULL:          0

 AVG_CONGESTED_CYCLE: 6

CPU 0 Branch Prediction Accuracy: 92.2762% MPKI: 14.4142 Average ROB Occupancy at Mispredict: 28.9792

Branch types
NOT_BRANCH: 40668661 81.3373%
BRANCH_DIRECT_JUMP: 531697 1.06339%
BRANCH_INDIRECT: 199023 0.398046%
BRANCH_CONDITIONAL: 6211453 12.4229%
BRANCH_DIRECT_CALL: 1010905 2.02181%
BRANCH_INDIRECT_CALL: 183501 0.367002%
BRANCH_RETURN: 1194406 2.38881%
BRANCH_OTHER: 0 0%

