Initialize SIGNATURE TABLE
ST_SET: 1
ST_WAY: 256
ST_TAG_BIT: 16
ST_TAG_MASK: ffff

Initialize PATTERN TABLE
PT_SET: 512
PT_WAY: 4
SIG_DELTA_BIT: 7
C_SIG_BIT: 4
C_DELTA_BIT: 4

Initialize PREFETCH FILTER
FILTER_SET: 1024

*** ChampSim Multicore Out-of-Order Simulator ***

Warmup Instructions: 50000000
Simulation Instructions: 50000000
Number of CPUs: 1
LLC sets: 2048
LLC ways: 16
Off-chip DRAM Size: 4096 MB Channels: 1 Width: 64-bit Data Rate: 3200 MT/s

CPU 0 runs /home/xubinfang/Desktop/ChampSim/dpc3_traces/server_023.champsimtrace.xz
CPU 0 Bimodal branch predictor
CPU 0 L1D next line prefetcher
Heartbeat CPU 0 instructions: 10000000 cycles: 3505205 heartbeat IPC: 2.8529 cumulative IPC: 2.8529 (Simulation time: 0 hr 0 min 43 sec) 
Heartbeat CPU 0 instructions: 20000000 cycles: 7009716 heartbeat IPC: 2.85347 cumulative IPC: 2.85318 (Simulation time: 0 hr 1 min 13 sec) 
Heartbeat CPU 0 instructions: 30000001 cycles: 10507504 heartbeat IPC: 2.85895 cumulative IPC: 2.8551 (Simulation time: 0 hr 1 min 42 sec) 
Heartbeat CPU 0 instructions: 40000003 cycles: 14011809 heartbeat IPC: 2.85363 cumulative IPC: 2.85474 (Simulation time: 0 hr 2 min 12 sec) 
Heartbeat CPU 0 instructions: 50000001 cycles: 17518328 heartbeat IPC: 2.85183 cumulative IPC: 2.85415 (Simulation time: 0 hr 2 min 41 sec) 

Warmup complete CPU 0 instructions: 50000001 cycles: 17518328 (Simulation time: 0 hr 2 min 41 sec) 

Heartbeat CPU 0 instructions: 60000000 cycles: 29700111 heartbeat IPC: 0.820898 cumulative IPC: 0.820898 (Simulation time: 0 hr 3 min 9 sec) 
Heartbeat CPU 0 instructions: 70000000 cycles: 41929510 heartbeat IPC: 0.817702 cumulative IPC: 0.819297 (Simulation time: 0 hr 3 min 34 sec) 
Heartbeat CPU 0 instructions: 80000000 cycles: 54058512 heartbeat IPC: 0.82447 cumulative IPC: 0.821014 (Simulation time: 0 hr 4 min 0 sec) 
Heartbeat CPU 0 instructions: 90000000 cycles: 65306778 heartbeat IPC: 0.889026 cumulative IPC: 0.837022 (Simulation time: 0 hr 4 min 25 sec) 
Heartbeat CPU 0 instructions: 100000002 cycles: 77541227 heartbeat IPC: 0.817364 cumulative IPC: 0.833015 (Simulation time: 0 hr 4 min 51 sec) 
Finished CPU 0 instructions: 50000001 cycles: 60022899 cumulative IPC: 0.833015 (Simulation time: 0 hr 4 min 51 sec) 

ChampSim completed all CPUs

Region of Interest Statistics

CPU 0 cumulative IPC: 0.833015 instructions: 50000001 cycles: 60022899
L1D TOTAL     ACCESS:   22404315  HIT:   20934869  MISS:    1469446
L1D LOAD      ACCESS:    8318367  HIT:    7671105  MISS:     647262
L1D RFO       ACCESS:    6070587  HIT:    5809314  MISS:     261273
L1D PREFETCH  ACCESS:    8015361  HIT:    7454450  MISS:     560911
L1D WRITEBACK ACCESS:          0  HIT:          0  MISS:          0
L1D PREFETCH  REQUESTED:    8369786  ISSUED:    8259249  USEFUL:     144328  USELESS:     416591
L1D AVERAGE MISS LATENCY: 23.7283 cycles
L1I TOTAL     ACCESS:    9407020  HIT:    7009083  MISS:    2397937
L1I LOAD      ACCESS:    9407020  HIT:    7009083  MISS:    2397937
L1I RFO       ACCESS:          0  HIT:          0  MISS:          0
L1I PREFETCH  ACCESS:          0  HIT:          0  MISS:          0
L1I WRITEBACK ACCESS:          0  HIT:          0  MISS:          0
L1I PREFETCH  REQUESTED:          0  ISSUED:          0  USEFUL:          0  USELESS:          0
L1I AVERAGE MISS LATENCY: 18.4169 cycles
L2C TOTAL     ACCESS:    6352658  HIT:    5709788  MISS:     642870
L2C LOAD      ACCESS:    2971886  HIT:    2542427  MISS:     429459
L2C RFO       ACCESS:     258594  HIT:     168922  MISS:      89672
L2C PREFETCH  ACCESS:    2622663  HIT:    2500610  MISS:     122053
L2C WRITEBACK ACCESS:     499515  HIT:     497829  MISS:       1686
L2C PREFETCH  REQUESTED:    3919410  ISSUED:    3919310  USEFUL:      11104  USELESS:     110939
L2C AVERAGE MISS LATENCY: 39.9946 cycles
LLC TOTAL     ACCESS:    2050138  HIT:    2000876  MISS:      49262
LLC LOAD      ACCESS:     428830  HIT:     420924  MISS:       7906
LLC RFO       ACCESS:      89665  HIT:      71709  MISS:      17956
LLC PREFETCH  ACCESS:    1393129  HIT:    1370015  MISS:      23114
LLC WRITEBACK ACCESS:     138514  HIT:     138228  MISS:        286
LLC PREFETCH  REQUESTED:          0  ISSUED:          0  USEFUL:       2792  USELESS:      21359
LLC AVERAGE MISS LATENCY: 180.052 cycles
Major fault: 0 Minor fault: 2766
CPU 0 L1D next line prefetcher final stats

DRAM Statistics
 CHANNEL 0
 RQ ROW_BUFFER_HIT:      15250  ROW_BUFFER_MISS:      33709
 DBUS_CONGESTED:      31344
 WQ ROW_BUFFER_HIT:       2558  ROW_BUFFER_MISS:      18330  FULL:          0

 AVG_CONGESTED_CYCLE: 6

CPU 0 Branch Prediction Accuracy: 92.0242% MPKI: 14.5982 Average ROB Occupancy at Mispredict: 26.3966

Branch types
NOT_BRANCH: 40848055 81.6961%
BRANCH_DIRECT_JUMP: 548368 1.09674%
BRANCH_INDIRECT: 189802 0.379604%
BRANCH_CONDITIONAL: 6372722 12.7454%
BRANCH_DIRECT_CALL: 862205 1.72441%
BRANCH_INDIRECT_CALL: 158147 0.316294%
BRANCH_RETURN: 1020341 2.04068%
BRANCH_OTHER: 0 0%

