Initialize SIGNATURE TABLE
ST_SET: 1
ST_WAY: 256
ST_TAG_BIT: 16
ST_TAG_MASK: ffff

Initialize PATTERN TABLE
PT_SET: 512
PT_WAY: 4
SIG_DELTA_BIT: 7
C_SIG_BIT: 4
C_DELTA_BIT: 4

Initialize PREFETCH FILTER
FILTER_SET: 1024

*** ChampSim Multicore Out-of-Order Simulator ***

Warmup Instructions: 50000000
Simulation Instructions: 50000000
Number of CPUs: 1
LLC sets: 2048
LLC ways: 16
Off-chip DRAM Size: 4096 MB Channels: 1 Width: 64-bit Data Rate: 3200 MT/s

CPU 0 runs /home/xubinfang/Desktop/ChampSim/dpc3_traces/server_026.champsimtrace.xz
CPU 0 Bimodal branch predictor
CPU 0 L1D next line prefetcher
Heartbeat CPU 0 instructions: 10000000 cycles: 3533516 heartbeat IPC: 2.83004 cumulative IPC: 2.83004 (Simulation time: 0 hr 0 min 32 sec) 
Heartbeat CPU 0 instructions: 20000002 cycles: 7073386 heartbeat IPC: 2.82496 cumulative IPC: 2.8275 (Simulation time: 0 hr 1 min 5 sec) 
Heartbeat CPU 0 instructions: 30000000 cycles: 10602382 heartbeat IPC: 2.83367 cumulative IPC: 2.82955 (Simulation time: 0 hr 1 min 36 sec) 
Heartbeat CPU 0 instructions: 40000003 cycles: 14140957 heartbeat IPC: 2.826 cumulative IPC: 2.82866 (Simulation time: 0 hr 2 min 7 sec) 
Heartbeat CPU 0 instructions: 50000000 cycles: 17672204 heartbeat IPC: 2.83186 cumulative IPC: 2.8293 (Simulation time: 0 hr 2 min 39 sec) 

Warmup complete CPU 0 instructions: 50000004 cycles: 17672205 (Simulation time: 0 hr 2 min 39 sec) 

*** Reached end of trace for Core: 0 Repeating trace: /home/xubinfang/Desktop/ChampSim/dpc3_traces/server_026.champsimtrace.xz
Heartbeat CPU 0 instructions: 60000000 cycles: 30438679 heartbeat IPC: 0.783302 cumulative IPC: 0.783301 (Simulation time: 0 hr 3 min 4 sec) 
Heartbeat CPU 0 instructions: 70000003 cycles: 43044789 heartbeat IPC: 0.793266 cumulative IPC: 0.788252 (Simulation time: 0 hr 3 min 28 sec) 
Heartbeat CPU 0 instructions: 80000003 cycles: 55810268 heartbeat IPC: 0.783363 cumulative IPC: 0.786616 (Simulation time: 0 hr 3 min 52 sec) 
Heartbeat CPU 0 instructions: 90000002 cycles: 68432122 heartbeat IPC: 0.792277 cumulative IPC: 0.788023 (Simulation time: 0 hr 4 min 18 sec) 
Heartbeat CPU 0 instructions: 100000000 cycles: 81155197 heartbeat IPC: 0.785973 cumulative IPC: 0.787612 (Simulation time: 0 hr 4 min 46 sec) 
Finished CPU 0 instructions: 50000000 cycles: 63482993 cumulative IPC: 0.787613 (Simulation time: 0 hr 4 min 46 sec) 

ChampSim completed all CPUs

Region of Interest Statistics

CPU 0 cumulative IPC: 0.787613 instructions: 50000000 cycles: 63482993
L1D TOTAL     ACCESS:   23187910  HIT:   21540275  MISS:    1647635
L1D LOAD      ACCESS:    8577161  HIT:    7863838  MISS:     713323
L1D RFO       ACCESS:    6347694  HIT:    6060445  MISS:     287249
L1D PREFETCH  ACCESS:    8263055  HIT:    7615992  MISS:     647063
L1D WRITEBACK ACCESS:          0  HIT:          0  MISS:          0
L1D PREFETCH  REQUESTED:    8624537  ISSUED:    8496786  USEFUL:     167439  USELESS:     479635
L1D AVERAGE MISS LATENCY: 23.0423 cycles
L1I TOTAL     ACCESS:    9418376  HIT:    6678283  MISS:    2740093
L1I LOAD      ACCESS:    9418376  HIT:    6678283  MISS:    2740093
L1I RFO       ACCESS:          0  HIT:          0  MISS:          0
L1I PREFETCH  ACCESS:          0  HIT:          0  MISS:          0
L1I WRITEBACK ACCESS:          0  HIT:          0  MISS:          0
L1I PREFETCH  REQUESTED:          0  ISSUED:          0  USEFUL:          0  USELESS:          0
L1I AVERAGE MISS LATENCY: 18.4322 cycles
L2C TOTAL     ACCESS:    7320440  HIT:    6567602  MISS:     752838
L2C LOAD      ACCESS:    3388052  HIT:    2875397  MISS:     512655
L2C RFO       ACCESS:     284959  HIT:     190504  MISS:      94455
L2C PREFETCH  ACCESS:    3086263  HIT:    2943323  MISS:     142940
L2C WRITEBACK ACCESS:     561166  HIT:     558378  MISS:       2788
L2C PREFETCH  REQUESTED:    4740132  ISSUED:    4739958  USEFUL:      12919  USELESS:     129919
L2C AVERAGE MISS LATENCY: 36.317 cycles
LLC TOTAL     ACCESS:    2410987  HIT:    2377055  MISS:      33932
LLC LOAD      ACCESS:     512252  HIT:     507599  MISS:       4653
LLC RFO       ACCESS:      94455  HIT:      79993  MISS:      14462
LLC PREFETCH  ACCESS:    1647476  HIT:    1632869  MISS:      14607
LLC WRITEBACK ACCESS:     156804  HIT:     156594  MISS:        210
LLC PREFETCH  REQUESTED:          0  ISSUED:          0  USEFUL:       1426  USELESS:      14416
LLC AVERAGE MISS LATENCY: 183.693 cycles
Major fault: 0 Minor fault: 2165
CPU 0 L1D next line prefetcher final stats

DRAM Statistics
 CHANNEL 0
 RQ ROW_BUFFER_HIT:      12536  ROW_BUFFER_MISS:      21183
 DBUS_CONGESTED:      22978
 WQ ROW_BUFFER_HIT:       1513  ROW_BUFFER_MISS:      13793  FULL:          0

 AVG_CONGESTED_CYCLE: 6

CPU 0 Branch Prediction Accuracy: 91.6197% MPKI: 15.3382 Average ROB Occupancy at Mispredict: 25.3998

Branch types
NOT_BRANCH: 40848500 81.697%
BRANCH_DIRECT_JUMP: 522044 1.04409%
BRANCH_INDIRECT: 204034 0.408068%
BRANCH_CONDITIONAL: 6212951 12.4259%
BRANCH_DIRECT_CALL: 932388 1.86478%
BRANCH_INDIRECT_CALL: 173763 0.347526%
BRANCH_RETURN: 1106146 2.21229%
BRANCH_OTHER: 0 0%

