Initialize SIGNATURE TABLE
ST_SET: 1
ST_WAY: 256
ST_TAG_BIT: 16
ST_TAG_MASK: ffff

Initialize PATTERN TABLE
PT_SET: 512
PT_WAY: 4
SIG_DELTA_BIT: 7
C_SIG_BIT: 4
C_DELTA_BIT: 4

Initialize PREFETCH FILTER
FILTER_SET: 1024

*** ChampSim Multicore Out-of-Order Simulator ***

Warmup Instructions: 50000000
Simulation Instructions: 50000000
Number of CPUs: 1
LLC sets: 2048
LLC ways: 16
Off-chip DRAM Size: 4096 MB Channels: 1 Width: 64-bit Data Rate: 3200 MT/s

CPU 0 runs /home/xubinfang/Desktop/ChampSim/dpc3_traces/server_027.champsimtrace.xz
CPU 0 Bimodal branch predictor
CPU 0 L1D next line prefetcher
Heartbeat CPU 0 instructions: 10000001 cycles: 3534172 heartbeat IPC: 2.82952 cumulative IPC: 2.82952 (Simulation time: 0 hr 0 min 32 sec) 
Heartbeat CPU 0 instructions: 20000001 cycles: 7072939 heartbeat IPC: 2.82584 cumulative IPC: 2.82768 (Simulation time: 0 hr 1 min 3 sec) 
Heartbeat CPU 0 instructions: 30000002 cycles: 10605929 heartbeat IPC: 2.83046 cumulative IPC: 2.82861 (Simulation time: 0 hr 1 min 36 sec) 
Heartbeat CPU 0 instructions: 40000000 cycles: 14146005 heartbeat IPC: 2.8248 cumulative IPC: 2.82765 (Simulation time: 0 hr 2 min 9 sec) 
Heartbeat CPU 0 instructions: 50000001 cycles: 17679960 heartbeat IPC: 2.82969 cumulative IPC: 2.82806 (Simulation time: 0 hr 2 min 44 sec) 

Warmup complete CPU 0 instructions: 50000001 cycles: 17679960 (Simulation time: 0 hr 2 min 44 sec) 

Heartbeat CPU 0 instructions: 60000002 cycles: 30619592 heartbeat IPC: 0.77282 cumulative IPC: 0.77282 (Simulation time: 0 hr 3 min 13 sec) 
Heartbeat CPU 0 instructions: 70000003 cycles: 43450893 heartbeat IPC: 0.779344 cumulative IPC: 0.776068 (Simulation time: 0 hr 3 min 40 sec) 
Heartbeat CPU 0 instructions: 80000002 cycles: 56299053 heartbeat IPC: 0.778322 cumulative IPC: 0.776818 (Simulation time: 0 hr 4 min 6 sec) 
Heartbeat CPU 0 instructions: 90000000 cycles: 69224955 heartbeat IPC: 0.77364 cumulative IPC: 0.776021 (Simulation time: 0 hr 4 min 32 sec) 
Heartbeat CPU 0 instructions: 100000002 cycles: 82010012 heartbeat IPC: 0.782163 cumulative IPC: 0.777242 (Simulation time: 0 hr 5 min 0 sec) 
Finished CPU 0 instructions: 50000001 cycles: 64330052 cumulative IPC: 0.777242 (Simulation time: 0 hr 5 min 0 sec) 

ChampSim completed all CPUs

Region of Interest Statistics

CPU 0 cumulative IPC: 0.777242 instructions: 50000001 cycles: 64330052
L1D TOTAL     ACCESS:   23333996  HIT:   21729365  MISS:    1604631
L1D LOAD      ACCESS:    8597488  HIT:    7924196  MISS:     673292
L1D RFO       ACCESS:    6396469  HIT:    6110330  MISS:     286139
L1D PREFETCH  ACCESS:    8340039  HIT:    7694839  MISS:     645200
L1D WRITEBACK ACCESS:          0  HIT:          0  MISS:          0
L1D PREFETCH  REQUESTED:    8642687  ISSUED:    8534444  USEFUL:     167856  USELESS:     477359
L1D AVERAGE MISS LATENCY: 22.7616 cycles
L1I TOTAL     ACCESS:    9412427  HIT:    6658033  MISS:    2754394
L1I LOAD      ACCESS:    9412427  HIT:    6658033  MISS:    2754394
L1I RFO       ACCESS:          0  HIT:          0  MISS:          0
L1I PREFETCH  ACCESS:          0  HIT:          0  MISS:          0
L1I WRITEBACK ACCESS:          0  HIT:          0  MISS:          0
L1I PREFETCH  REQUESTED:          0  ISSUED:          0  USEFUL:          0  USELESS:          0
L1I AVERAGE MISS LATENCY: 18.6838 cycles
L2C TOTAL     ACCESS:    7127200  HIT:    6385471  MISS:     741729
L2C LOAD      ACCESS:    3382882  HIT:    2857440  MISS:     525442
L2C RFO       ACCESS:     283943  HIT:     199012  MISS:      84931
L2C PREFETCH  ACCESS:    2901026  HIT:    2772731  MISS:     128295
L2C WRITEBACK ACCESS:     559349  HIT:     556288  MISS:       3061
L2C PREFETCH  REQUESTED:    4282955  ISSUED:    4282712  USEFUL:      10827  USELESS:     117466
L2C AVERAGE MISS LATENCY: 35.9203 cycles
LLC TOTAL     ACCESS:    2288658  HIT:    2256493  MISS:      32165
LLC LOAD      ACCESS:     525055  HIT:     520740  MISS:       4315
LLC RFO       ACCESS:      84926  HIT:      71000  MISS:      13926
LLC PREFETCH  ACCESS:    1540942  HIT:    1527197  MISS:      13745
LLC WRITEBACK ACCESS:     137735  HIT:     137556  MISS:        179
LLC PREFETCH  REQUESTED:          0  ISSUED:          0  USEFUL:       1496  USELESS:      13029
LLC AVERAGE MISS LATENCY: 180.657 cycles
Major fault: 0 Minor fault: 2477
CPU 0 L1D next line prefetcher final stats

DRAM Statistics
 CHANNEL 0
 RQ ROW_BUFFER_HIT:      11158  ROW_BUFFER_MISS:      20827
 DBUS_CONGESTED:      22387
 WQ ROW_BUFFER_HIT:       1465  ROW_BUFFER_MISS:      13852  FULL:          0

 AVG_CONGESTED_CYCLE: 6

CPU 0 Branch Prediction Accuracy: 91.5085% MPKI: 15.5267 Average ROB Occupancy at Mispredict: 24.8924

Branch types
NOT_BRANCH: 40857228 81.7145%
BRANCH_DIRECT_JUMP: 526631 1.05326%
BRANCH_INDIRECT: 205902 0.411804%
BRANCH_CONDITIONAL: 6184014 12.368%
BRANCH_DIRECT_CALL: 938462 1.87692%
BRANCH_INDIRECT_CALL: 174486 0.348972%
BRANCH_RETURN: 1112951 2.2259%
BRANCH_OTHER: 0 0%

