Initialize SIGNATURE TABLE
ST_SET: 1
ST_WAY: 256
ST_TAG_BIT: 16
ST_TAG_MASK: ffff

Initialize PATTERN TABLE
PT_SET: 512
PT_WAY: 4
SIG_DELTA_BIT: 7
C_SIG_BIT: 4
C_DELTA_BIT: 4

Initialize PREFETCH FILTER
FILTER_SET: 1024

*** ChampSim Multicore Out-of-Order Simulator ***

Warmup Instructions: 50000000
Simulation Instructions: 50000000
Number of CPUs: 1
LLC sets: 2048
LLC ways: 16
Off-chip DRAM Size: 4096 MB Channels: 1 Width: 64-bit Data Rate: 3200 MT/s

CPU 0 runs /home/xubinfang/Desktop/ChampSim/dpc3_traces/server_022.champsimtrace.xz
CPU 0 Bimodal branch predictor
CPU 0 L1D next line prefetcher
Heartbeat CPU 0 instructions: 10000002 cycles: 3629273 heartbeat IPC: 2.75537 cumulative IPC: 2.75537 (Simulation time: 0 hr 0 min 34 sec) 
Heartbeat CPU 0 instructions: 20000001 cycles: 7264799 heartbeat IPC: 2.75063 cumulative IPC: 2.753 (Simulation time: 0 hr 1 min 8 sec) 
Heartbeat CPU 0 instructions: 30000003 cycles: 10893771 heartbeat IPC: 2.7556 cumulative IPC: 2.75387 (Simulation time: 0 hr 1 min 40 sec) 
Heartbeat CPU 0 instructions: 40000003 cycles: 14530498 heartbeat IPC: 2.74973 cumulative IPC: 2.75283 (Simulation time: 0 hr 2 min 14 sec) 
Heartbeat CPU 0 instructions: 50000002 cycles: 18156888 heartbeat IPC: 2.75756 cumulative IPC: 2.75378 (Simulation time: 0 hr 2 min 48 sec) 

Warmup complete CPU 0 instructions: 50000002 cycles: 18156888 (Simulation time: 0 hr 2 min 48 sec) 

Heartbeat CPU 0 instructions: 60000002 cycles: 37993007 heartbeat IPC: 0.504131 cumulative IPC: 0.504131 (Simulation time: 0 hr 3 min 32 sec) 
Heartbeat CPU 0 instructions: 70000001 cycles: 58032799 heartbeat IPC: 0.499007 cumulative IPC: 0.501556 (Simulation time: 0 hr 4 min 20 sec) 
Heartbeat CPU 0 instructions: 80000001 cycles: 77962254 heartbeat IPC: 0.50177 cumulative IPC: 0.501627 (Simulation time: 0 hr 5 min 1 sec) 
Heartbeat CPU 0 instructions: 90000000 cycles: 98059174 heartbeat IPC: 0.497589 cumulative IPC: 0.500611 (Simulation time: 0 hr 5 min 41 sec) 
Heartbeat CPU 0 instructions: 100000003 cycles: 117866927 heartbeat IPC: 0.504853 cumulative IPC: 0.501454 (Simulation time: 0 hr 7 min 1 sec) 
Finished CPU 0 instructions: 50000001 cycles: 99710039 cumulative IPC: 0.501454 (Simulation time: 0 hr 7 min 1 sec) 

ChampSim completed all CPUs

Region of Interest Statistics

CPU 0 cumulative IPC: 0.501454 instructions: 50000001 cycles: 99710039
L1D TOTAL     ACCESS:   20726002  HIT:   18515093  MISS:    2210909
L1D LOAD      ACCESS:    8016118  HIT:    7310066  MISS:     706052
L1D RFO       ACCESS:    5944497  HIT:    4964237  MISS:     980260
L1D PREFETCH  ACCESS:    6765387  HIT:    6240790  MISS:     524597
L1D WRITEBACK ACCESS:          0  HIT:          0  MISS:          0
L1D PREFETCH  REQUESTED:    8066833  ISSUED:    7900240  USEFUL:     202845  USELESS:     321757
L1D AVERAGE MISS LATENCY: 172.512 cycles
L1I TOTAL     ACCESS:    9779925  HIT:    7331262  MISS:    2448663
L1I LOAD      ACCESS:    9779925  HIT:    7331262  MISS:    2448663
L1I RFO       ACCESS:          0  HIT:          0  MISS:          0
L1I PREFETCH  ACCESS:          0  HIT:          0  MISS:          0
L1I WRITEBACK ACCESS:          0  HIT:          0  MISS:          0
L1I PREFETCH  REQUESTED:          0  ISSUED:          0  USEFUL:          0  USELESS:          0
L1I AVERAGE MISS LATENCY: 17.235 cycles
L2C TOTAL     ACCESS:    8020542  HIT:    6161253  MISS:    1859289
L2C LOAD      ACCESS:    2920715  HIT:    2551637  MISS:     369078
L2C RFO       ACCESS:     979823  HIT:      21486  MISS:     958337
L2C PREFETCH  ACCESS:    2934883  HIT:    2404975  MISS:     529908
L2C WRITEBACK ACCESS:    1185121  HIT:    1183155  MISS:       1966
L2C PREFETCH  REQUESTED:    4007760  ISSUED:    4004420  USEFUL:      20423  USELESS:     509328
L2C AVERAGE MISS LATENCY: 209.706 cycles
LLC TOTAL     ACCESS:    4078537  HIT:    2691963  MISS:    1386574
LLC LOAD      ACCESS:     368685  HIT:     278678  MISS:      90007
LLC RFO       ACCESS:     958329  HIT:     141398  MISS:     816931
LLC PREFETCH  ACCESS:    1635843  HIT:    1158218  MISS:     477625
LLC WRITEBACK ACCESS:    1115680  HIT:    1113669  MISS:       2011
LLC PREFETCH  REQUESTED:          0  ISSUED:          0  USEFUL:      32471  USELESS:     446109
LLC AVERAGE MISS LATENCY: 276.033 cycles
Major fault: 0 Minor fault: 23505
CPU 0 L1D next line prefetcher final stats

DRAM Statistics
 CHANNEL 0
 RQ ROW_BUFFER_HIT:     407661  ROW_BUFFER_MISS:     976708
 DBUS_CONGESTED:    1381501
 WQ ROW_BUFFER_HIT:     261443  ROW_BUFFER_MISS:     638931  FULL:          0

 AVG_CONGESTED_CYCLE: 6

CPU 0 Branch Prediction Accuracy: 96.645% MPKI: 5.4947 Average ROB Occupancy at Mispredict: 64.4505

Branch types
NOT_BRANCH: 41811018 83.622%
BRANCH_DIRECT_JUMP: 445737 0.891474%
BRANCH_INDIRECT: 48875 0.09775%
BRANCH_CONDITIONAL: 5859377 11.7188%
BRANCH_DIRECT_CALL: 758262 1.51652%
BRANCH_INDIRECT_CALL: 159103 0.318206%
BRANCH_RETURN: 917369 1.83474%
BRANCH_OTHER: 0 0%

