Initialize SIGNATURE TABLE
ST_SET: 1
ST_WAY: 256
ST_TAG_BIT: 16
ST_TAG_MASK: ffff

Initialize PATTERN TABLE
PT_SET: 512
PT_WAY: 4
SIG_DELTA_BIT: 7
C_SIG_BIT: 4
C_DELTA_BIT: 4

Initialize PREFETCH FILTER
FILTER_SET: 1024

*** ChampSim Multicore Out-of-Order Simulator ***

Warmup Instructions: 50000000
Simulation Instructions: 50000000
Number of CPUs: 1
LLC sets: 2048
LLC ways: 16
Off-chip DRAM Size: 4096 MB Channels: 1 Width: 64-bit Data Rate: 3200 MT/s

CPU 0 runs /home/xubinfang/Desktop/ChampSim/dpc3_traces/server_034.champsimtrace.xz
CPU 0 Bimodal branch predictor
CPU 0 L1D next line prefetcher
Heartbeat CPU 0 instructions: 10000000 cycles: 3337590 heartbeat IPC: 2.99617 cumulative IPC: 2.99617 (Simulation time: 0 hr 0 min 34 sec) 
Heartbeat CPU 0 instructions: 20000002 cycles: 6667395 heartbeat IPC: 3.00318 cumulative IPC: 2.99967 (Simulation time: 0 hr 1 min 8 sec) 
Heartbeat CPU 0 instructions: 30000003 cycles: 10005534 heartbeat IPC: 2.99568 cumulative IPC: 2.99834 (Simulation time: 0 hr 1 min 43 sec) 
Heartbeat CPU 0 instructions: 40000001 cycles: 13341812 heartbeat IPC: 2.99735 cumulative IPC: 2.99809 (Simulation time: 0 hr 2 min 17 sec) 
Heartbeat CPU 0 instructions: 50000000 cycles: 16677440 heartbeat IPC: 2.99794 cumulative IPC: 2.99806 (Simulation time: 0 hr 2 min 51 sec) 

Warmup complete CPU 0 instructions: 50000002 cycles: 16677441 (Simulation time: 0 hr 2 min 51 sec) 

Heartbeat CPU 0 instructions: 60000002 cycles: 27892222 heartbeat IPC: 0.89168 cumulative IPC: 0.89168 (Simulation time: 0 hr 3 min 18 sec) 
Heartbeat CPU 0 instructions: 70000003 cycles: 39312590 heartbeat IPC: 0.875629 cumulative IPC: 0.883582 (Simulation time: 0 hr 3 min 45 sec) 
Heartbeat CPU 0 instructions: 80000002 cycles: 50592356 heartbeat IPC: 0.886543 cumulative IPC: 0.884567 (Simulation time: 0 hr 4 min 12 sec) 
Heartbeat CPU 0 instructions: 90000002 cycles: 61866621 heartbeat IPC: 0.886976 cumulative IPC: 0.885168 (Simulation time: 0 hr 4 min 38 sec) 
Heartbeat CPU 0 instructions: 100000002 cycles: 73171062 heartbeat IPC: 0.884608 cumulative IPC: 0.885056 (Simulation time: 0 hr 5 min 8 sec) 
Finished CPU 0 instructions: 50000000 cycles: 56493621 cumulative IPC: 0.885056 (Simulation time: 0 hr 5 min 8 sec) 

ChampSim completed all CPUs

Region of Interest Statistics

CPU 0 cumulative IPC: 0.885056 instructions: 50000000 cycles: 56493621
L1D TOTAL     ACCESS:   21684627  HIT:   20257895  MISS:    1426732
L1D LOAD      ACCESS:    7780729  HIT:    7138600  MISS:     642129
L1D RFO       ACCESS:    6252501  HIT:    6106814  MISS:     145687
L1D PREFETCH  ACCESS:    7651397  HIT:    7012481  MISS:     638916
L1D WRITEBACK ACCESS:          0  HIT:          0  MISS:          0
L1D PREFETCH  REQUESTED:    7822747  ISSUED:    7760247  USEFUL:     151448  USELESS:     487435
L1D AVERAGE MISS LATENCY: 17.4306 cycles
L1I TOTAL     ACCESS:    9738493  HIT:    6442217  MISS:    3296276
L1I LOAD      ACCESS:    9738493  HIT:    6442217  MISS:    3296276
L1I RFO       ACCESS:          0  HIT:          0  MISS:          0
L1I PREFETCH  ACCESS:          0  HIT:          0  MISS:          0
L1I WRITEBACK ACCESS:          0  HIT:          0  MISS:          0
L1I PREFETCH  REQUESTED:          0  ISSUED:          0  USEFUL:          0  USELESS:          0
L1I AVERAGE MISS LATENCY: 14.4677 cycles
L2C TOTAL     ACCESS:    8243703  HIT:    8112733  MISS:     130970
L2C LOAD      ACCESS:    3931420  HIT:    3853387  MISS:      78033
L2C RFO       ACCESS:     145428  HIT:     136469  MISS:       8959
L2C PREFETCH  ACCESS:    3815719  HIT:    3772491  MISS:      43228
L2C WRITEBACK ACCESS:     351136  HIT:     350386  MISS:        750
L2C PREFETCH  REQUESTED:    5653352  ISSUED:    5652950  USEFUL:       5342  USELESS:      37915
L2C AVERAGE MISS LATENCY: 36.9082 cycles
LLC TOTAL     ACCESS:    1779080  HIT:    1766567  MISS:      12513
LLC LOAD      ACCESS:      77294  HIT:      74055  MISS:       3239
LLC RFO       ACCESS:       8959  HIT:       8672  MISS:        287
LLC PREFETCH  ACCESS:    1653032  HIT:    1644112  MISS:       8920
LLC WRITEBACK ACCESS:      39795  HIT:      39728  MISS:         67
LLC PREFETCH  REQUESTED:          0  ISSUED:          0  USEFUL:       3352  USELESS:       4101
LLC AVERAGE MISS LATENCY: 143.079 cycles
Major fault: 0 Minor fault: 1170
CPU 0 L1D next line prefetcher final stats

DRAM Statistics
 CHANNEL 0
 RQ ROW_BUFFER_HIT:       3916  ROW_BUFFER_MISS:       8529
 DBUS_CONGESTED:       5453
 WQ ROW_BUFFER_HIT:        905  ROW_BUFFER_MISS:       2755  FULL:          0

 AVG_CONGESTED_CYCLE: 5

CPU 0 Branch Prediction Accuracy: 93.2298% MPKI: 13.2408 Average ROB Occupancy at Mispredict: 21.1774

Branch types
NOT_BRANCH: 40220819 80.4416%
BRANCH_DIRECT_JUMP: 771317 1.54263%
BRANCH_INDIRECT: 108662 0.217324%
BRANCH_CONDITIONAL: 6375014 12.75%
BRANCH_DIRECT_CALL: 1049630 2.09926%
BRANCH_INDIRECT_CALL: 212280 0.42456%
BRANCH_RETURN: 1261920 2.52384%
BRANCH_OTHER: 0 0%

