Initialize SIGNATURE TABLE
ST_SET: 1
ST_WAY: 256
ST_TAG_BIT: 16
ST_TAG_MASK: ffff

Initialize PATTERN TABLE
PT_SET: 512
PT_WAY: 4
SIG_DELTA_BIT: 7
C_SIG_BIT: 4
C_DELTA_BIT: 4

Initialize PREFETCH FILTER
FILTER_SET: 1024

*** ChampSim Multicore Out-of-Order Simulator ***

Warmup Instructions: 50000000
Simulation Instructions: 50000000
Number of CPUs: 1
LLC sets: 2048
LLC ways: 16
Off-chip DRAM Size: 4096 MB Channels: 1 Width: 64-bit Data Rate: 3200 MT/s

CPU 0 runs /home/xubinfang/Desktop/ChampSim/dpc3_traces/server_009.champsimtrace.xz
CPU 0 Bimodal branch predictor
CPU 0 L1D next line prefetcher
Heartbeat CPU 0 instructions: 10000003 cycles: 3201530 heartbeat IPC: 3.12351 cumulative IPC: 3.12351 (Simulation time: 0 hr 0 min 36 sec) 
Heartbeat CPU 0 instructions: 20000001 cycles: 6396454 heartbeat IPC: 3.12996 cumulative IPC: 3.12673 (Simulation time: 0 hr 1 min 11 sec) 
Heartbeat CPU 0 instructions: 30000002 cycles: 9605704 heartbeat IPC: 3.11599 cumulative IPC: 3.12314 (Simulation time: 0 hr 1 min 46 sec) 
Heartbeat CPU 0 instructions: 40000003 cycles: 12812185 heartbeat IPC: 3.11868 cumulative IPC: 3.12203 (Simulation time: 0 hr 2 min 21 sec) 
Heartbeat CPU 0 instructions: 50000000 cycles: 16074282 heartbeat IPC: 3.06551 cumulative IPC: 3.11056 (Simulation time: 0 hr 2 min 57 sec) 

Warmup complete CPU 0 instructions: 50000004 cycles: 16074283 (Simulation time: 0 hr 2 min 57 sec) 

Heartbeat CPU 0 instructions: 60000001 cycles: 35293822 heartbeat IPC: 0.520304 cumulative IPC: 0.520304 (Simulation time: 0 hr 3 min 39 sec) 
Heartbeat CPU 0 instructions: 70000003 cycles: 57936407 heartbeat IPC: 0.441646 cumulative IPC: 0.477759 (Simulation time: 0 hr 4 min 29 sec) 
Heartbeat CPU 0 instructions: 80000000 cycles: 70392335 heartbeat IPC: 0.80283 cumulative IPC: 0.552302 (Simulation time: 0 hr 5 min 0 sec) 
Heartbeat CPU 0 instructions: 90000001 cycles: 83019559 heartbeat IPC: 0.79194 cumulative IPC: 0.597503 (Simulation time: 0 hr 5 min 32 sec) 
Heartbeat CPU 0 instructions: 100000001 cycles: 95458887 heartbeat IPC: 0.803902 cumulative IPC: 0.629845 (Simulation time: 0 hr 6 min 3 sec) 
Finished CPU 0 instructions: 50000000 cycles: 79384605 cumulative IPC: 0.629845 (Simulation time: 0 hr 6 min 3 sec) 

ChampSim completed all CPUs

Region of Interest Statistics

CPU 0 cumulative IPC: 0.629845 instructions: 50000000 cycles: 79384605
L1D TOTAL     ACCESS:   22966442  HIT:   18385478  MISS:    4580964
L1D LOAD      ACCESS:    9264334  HIT:    6996883  MISS:    2267451
L1D RFO       ACCESS:    4633583  HIT:    4528523  MISS:     105060
L1D PREFETCH  ACCESS:    9068525  HIT:    6860072  MISS:    2208453
L1D WRITEBACK ACCESS:          0  HIT:          0  MISS:          0
L1D PREFETCH  REQUESTED:    9297120  ISSUED:    9194512  USEFUL:     118895  USELESS:    2089556
L1D AVERAGE MISS LATENCY: 19.8663 cycles
L1I TOTAL     ACCESS:    9734270  HIT:    8712174  MISS:    1022096
L1I LOAD      ACCESS:    9734270  HIT:    8712174  MISS:    1022096
L1I RFO       ACCESS:          0  HIT:          0  MISS:          0
L1I PREFETCH  ACCESS:          0  HIT:          0  MISS:          0
L1I WRITEBACK ACCESS:          0  HIT:          0  MISS:          0
L1I PREFETCH  REQUESTED:          0  ISSUED:          0  USEFUL:          0  USELESS:          0
L1I AVERAGE MISS LATENCY: 31.0339 cycles
L2C TOTAL     ACCESS:    7638662  HIT:    6666241  MISS:     972421
L2C LOAD      ACCESS:    3273471  HIT:    2617177  MISS:     656294
L2C RFO       ACCESS:     104097  HIT:      65676  MISS:      38421
L2C PREFETCH  ACCESS:    4004204  HIT:    3727006  MISS:     277198
L2C WRITEBACK ACCESS:     256890  HIT:     256382  MISS:        508
L2C PREFETCH  REQUESTED:    7268809  ISSUED:    7268410  USEFUL:      52579  USELESS:     224609
L2C AVERAGE MISS LATENCY: 40.8473 cycles
LLC TOTAL     ACCESS:    2966249  HIT:    2813678  MISS:     152571
LLC LOAD      ACCESS:     629403  HIT:     595357  MISS:      34046
LLC RFO       ACCESS:      38420  HIT:      29427  MISS:       8993
LLC PREFETCH  ACCESS:    2166818  HIT:    2057836  MISS:     108982
LLC WRITEBACK ACCESS:     131608  HIT:     131058  MISS:        550
LLC PREFETCH  REQUESTED:          0  ISSUED:          0  USEFUL:      21335  USELESS:      86627
LLC AVERAGE MISS LATENCY: 160.29 cycles
Major fault: 0 Minor fault: 6351
CPU 0 L1D next line prefetcher final stats

DRAM Statistics
 CHANNEL 0
 RQ ROW_BUFFER_HIT:      30481  ROW_BUFFER_MISS:     121536
 DBUS_CONGESTED:      60157
 WQ ROW_BUFFER_HIT:       8005  ROW_BUFFER_MISS:      41027  FULL:          0

 AVG_CONGESTED_CYCLE: 5

CPU 0 Branch Prediction Accuracy: 94.3582% MPKI: 11.8964 Average ROB Occupancy at Mispredict: 40.4344

Branch types
NOT_BRANCH: 39456587 78.9132%
BRANCH_DIRECT_JUMP: 445350 0.8907%
BRANCH_INDIRECT: 131149 0.262298%
BRANCH_CONDITIONAL: 8130188 16.2604%
BRANCH_DIRECT_CALL: 732485 1.46497%
BRANCH_INDIRECT_CALL: 172369 0.344738%
BRANCH_RETURN: 931558 1.86312%
BRANCH_OTHER: 0 0%

