Initialize SIGNATURE TABLE
ST_SET: 1
ST_WAY: 256
ST_TAG_BIT: 16
ST_TAG_MASK: ffff

Initialize PATTERN TABLE
PT_SET: 512
PT_WAY: 4
SIG_DELTA_BIT: 7
C_SIG_BIT: 4
C_DELTA_BIT: 4

Initialize PREFETCH FILTER
FILTER_SET: 1024

*** ChampSim Multicore Out-of-Order Simulator ***

Warmup Instructions: 50000000
Simulation Instructions: 50000000
Number of CPUs: 1
LLC sets: 2048
LLC ways: 16
Off-chip DRAM Size: 4096 MB Channels: 1 Width: 64-bit Data Rate: 3200 MT/s

CPU 0 runs /home/xubinfang/Desktop/ChampSim/dpc3_traces/server_003.champsimtrace.xz
CPU 0 Bimodal branch predictor
CPU 0 L1D next line prefetcher
Heartbeat CPU 0 instructions: 10000002 cycles: 3224673 heartbeat IPC: 3.10109 cumulative IPC: 3.10109 (Simulation time: 0 hr 0 min 29 sec) 
Heartbeat CPU 0 instructions: 20000000 cycles: 6544283 heartbeat IPC: 3.0124 cumulative IPC: 3.0561 (Simulation time: 0 hr 0 min 58 sec) 
Heartbeat CPU 0 instructions: 30000000 cycles: 9756018 heartbeat IPC: 3.11358 cumulative IPC: 3.07503 (Simulation time: 0 hr 1 min 35 sec) 
Heartbeat CPU 0 instructions: 40000001 cycles: 13173355 heartbeat IPC: 2.92626 cumulative IPC: 3.03643 (Simulation time: 0 hr 2 min 14 sec) 
Heartbeat CPU 0 instructions: 50000003 cycles: 16891850 heartbeat IPC: 2.68926 cumulative IPC: 2.96001 (Simulation time: 0 hr 2 min 53 sec) 

Warmup complete CPU 0 instructions: 50000003 cycles: 16891850 (Simulation time: 0 hr 2 min 53 sec) 

Heartbeat CPU 0 instructions: 60000000 cycles: 27598200 heartbeat IPC: 0.934025 cumulative IPC: 0.934025 (Simulation time: 0 hr 3 min 27 sec) 
Heartbeat CPU 0 instructions: 70000003 cycles: 38149668 heartbeat IPC: 0.947736 cumulative IPC: 0.94083 (Simulation time: 0 hr 3 min 59 sec) 
Heartbeat CPU 0 instructions: 80000000 cycles: 52030554 heartbeat IPC: 0.720415 cumulative IPC: 0.853759 (Simulation time: 0 hr 4 min 33 sec) 
Heartbeat CPU 0 instructions: 90000001 cycles: 66712670 heartbeat IPC: 0.681101 cumulative IPC: 0.802877 (Simulation time: 0 hr 5 min 7 sec) 
Heartbeat CPU 0 instructions: 100000003 cycles: 81528760 heartbeat IPC: 0.674942 cumulative IPC: 0.773552 (Simulation time: 0 hr 5 min 41 sec) 
Finished CPU 0 instructions: 50000000 cycles: 64636910 cumulative IPC: 0.773552 (Simulation time: 0 hr 5 min 41 sec) 

ChampSim completed all CPUs

Region of Interest Statistics

CPU 0 cumulative IPC: 0.773552 instructions: 50000000 cycles: 64636910
L1D TOTAL     ACCESS:   21103030  HIT:   19960984  MISS:    1142046
L1D LOAD      ACCESS:    8379016  HIT:    7856497  MISS:     522519
L1D RFO       ACCESS:    4592552  HIT:    4475211  MISS:     117341
L1D PREFETCH  ACCESS:    8131462  HIT:    7629276  MISS:     502186
L1D WRITEBACK ACCESS:          0  HIT:          0  MISS:          0
L1D PREFETCH  REQUESTED:    8442513  ISSUED:    8349418  USEFUL:     163469  USELESS:     338676
L1D AVERAGE MISS LATENCY: 52.4873 cycles
L1I TOTAL     ACCESS:    9339938  HIT:    8489003  MISS:     850935
L1I LOAD      ACCESS:    9339938  HIT:    8489003  MISS:     850935
L1I RFO       ACCESS:          0  HIT:          0  MISS:          0
L1I PREFETCH  ACCESS:          0  HIT:          0  MISS:          0
L1I WRITEBACK ACCESS:          0  HIT:          0  MISS:          0
L1I PREFETCH  REQUESTED:          0  ISSUED:          0  USEFUL:          0  USELESS:          0
L1I AVERAGE MISS LATENCY: 37.2658 cycles
L2C TOTAL     ACCESS:    3054900  HIT:    2142307  MISS:     912593
L2C LOAD      ACCESS:    1350229  HIT:     779012  MISS:     571217
L2C RFO       ACCESS:     114702  HIT:      42592  MISS:      72110
L2C PREFETCH  ACCESS:    1305611  HIT:    1036967  MISS:     268644
L2C WRITEBACK ACCESS:     284358  HIT:     283736  MISS:        622
L2C PREFETCH  REQUESTED:    2438889  ISSUED:    2438706  USEFUL:      41884  USELESS:     227028
L2C AVERAGE MISS LATENCY: 70.3245 cycles
LLC TOTAL     ACCESS:    2116105  HIT:    1718773  MISS:     397332
LLC LOAD      ACCESS:     554554  HIT:     444091  MISS:     110463
LLC RFO       ACCESS:      72108  HIT:      30887  MISS:      41221
LLC PREFETCH  ACCESS:    1328524  HIT:    1084823  MISS:     243701
LLC WRITEBACK ACCESS:     160919  HIT:     158972  MISS:       1947
LLC PREFETCH  REQUESTED:          0  ISSUED:          0  USEFUL:      65605  USELESS:     171101
LLC AVERAGE MISS LATENCY: 169.713 cycles
Major fault: 0 Minor fault: 7768
CPU 0 L1D next line prefetcher final stats

DRAM Statistics
 CHANNEL 0
 RQ ROW_BUFFER_HIT:      89527  ROW_BUFFER_MISS:     305835
 DBUS_CONGESTED:     180908
 WQ ROW_BUFFER_HIT:      25107  ROW_BUFFER_MISS:      80079  FULL:          0

 AVG_CONGESTED_CYCLE: 5

CPU 0 Branch Prediction Accuracy: 91.8378% MPKI: 16.1543 Average ROB Occupancy at Mispredict: 44.3838

Branch types
NOT_BRANCH: 40103851 80.2077%
BRANCH_DIRECT_JUMP: 497927 0.995854%
BRANCH_INDIRECT: 130586 0.261172%
BRANCH_CONDITIONAL: 7218981 14.438%
BRANCH_DIRECT_CALL: 625806 1.25161%
BRANCH_INDIRECT_CALL: 389785 0.77957%
BRANCH_RETURN: 1032744 2.06549%
BRANCH_OTHER: 0 0%

