Initialize SIGNATURE TABLE
ST_SET: 1
ST_WAY: 256
ST_TAG_BIT: 16
ST_TAG_MASK: ffff

Initialize PATTERN TABLE
PT_SET: 512
PT_WAY: 4
SIG_DELTA_BIT: 7
C_SIG_BIT: 4
C_DELTA_BIT: 4

Initialize PREFETCH FILTER
FILTER_SET: 1024

*** ChampSim Multicore Out-of-Order Simulator ***

Warmup Instructions: 50000000
Simulation Instructions: 50000000
Number of CPUs: 1
LLC sets: 2048
LLC ways: 16
Off-chip DRAM Size: 4096 MB Channels: 1 Width: 64-bit Data Rate: 3200 MT/s

CPU 0 runs /home/xubinfang/Desktop/ChampSim/dpc3_traces/server_020.champsimtrace.xz
CPU 0 Bimodal branch predictor
CPU 0 L1D next line prefetcher
Heartbeat CPU 0 instructions: 10000003 cycles: 3626794 heartbeat IPC: 2.75726 cumulative IPC: 2.75726 (Simulation time: 0 hr 0 min 33 sec) 
Heartbeat CPU 0 instructions: 20000002 cycles: 7257988 heartbeat IPC: 2.75391 cumulative IPC: 2.75558 (Simulation time: 0 hr 1 min 5 sec) 
Heartbeat CPU 0 instructions: 30000001 cycles: 10882556 heartbeat IPC: 2.75895 cumulative IPC: 2.75671 (Simulation time: 0 hr 1 min 38 sec) 
Heartbeat CPU 0 instructions: 40000002 cycles: 14508071 heartbeat IPC: 2.75823 cumulative IPC: 2.75709 (Simulation time: 0 hr 2 min 11 sec) 
Heartbeat CPU 0 instructions: 50000001 cycles: 18147533 heartbeat IPC: 2.74766 cumulative IPC: 2.7552 (Simulation time: 0 hr 2 min 42 sec) 

Warmup complete CPU 0 instructions: 50000001 cycles: 18147533 (Simulation time: 0 hr 2 min 42 sec) 

Heartbeat CPU 0 instructions: 60000000 cycles: 38677300 heartbeat IPC: 0.487098 cumulative IPC: 0.487098 (Simulation time: 0 hr 3 min 19 sec) 
Heartbeat CPU 0 instructions: 70000002 cycles: 59185138 heartbeat IPC: 0.487619 cumulative IPC: 0.487358 (Simulation time: 0 hr 3 min 56 sec) 
Heartbeat CPU 0 instructions: 80000002 cycles: 79550678 heartbeat IPC: 0.491026 cumulative IPC: 0.488574 (Simulation time: 0 hr 4 min 36 sec) 
Heartbeat CPU 0 instructions: 90000001 cycles: 99924549 heartbeat IPC: 0.490825 cumulative IPC: 0.489135 (Simulation time: 0 hr 5 min 17 sec) 
Heartbeat CPU 0 instructions: 100000002 cycles: 120448726 heartbeat IPC: 0.48723 cumulative IPC: 0.488753 (Simulation time: 0 hr 5 min 54 sec) 
Finished CPU 0 instructions: 50000001 cycles: 102301193 cumulative IPC: 0.488753 (Simulation time: 0 hr 5 min 54 sec) 

ChampSim completed all CPUs

Region of Interest Statistics

CPU 0 cumulative IPC: 0.488753 instructions: 50000001 cycles: 102301193
L1D TOTAL     ACCESS:   20590399  HIT:   18386145  MISS:    2204254
L1D LOAD      ACCESS:    7977584  HIT:    7259204  MISS:     718380
L1D RFO       ACCESS:    5857898  HIT:    4911226  MISS:     946672
L1D PREFETCH  ACCESS:    6754917  HIT:    6215715  MISS:     539202
L1D WRITEBACK ACCESS:          0  HIT:          0  MISS:          0
L1D PREFETCH  REQUESTED:    8028038  ISSUED:    7865908  USEFUL:     199509  USELESS:     339611
L1D AVERAGE MISS LATENCY: 168.374 cycles
L1I TOTAL     ACCESS:    9749577  HIT:    7348649  MISS:    2400928
L1I LOAD      ACCESS:    9749577  HIT:    7348649  MISS:    2400928
L1I RFO       ACCESS:          0  HIT:          0  MISS:          0
L1I PREFETCH  ACCESS:          0  HIT:          0  MISS:          0
L1I WRITEBACK ACCESS:          0  HIT:          0  MISS:          0
L1I PREFETCH  REQUESTED:          0  ISSUED:          0  USEFUL:          0  USELESS:          0
L1I AVERAGE MISS LATENCY: 17.4787 cycles
L2C TOTAL     ACCESS:    7955670  HIT:    6100671  MISS:    1854999
L2C LOAD      ACCESS:    2893187  HIT:    2503422  MISS:     389765
L2C RFO       ACCESS:     946327  HIT:      20453  MISS:     925874
L2C PREFETCH  ACCESS:    2952515  HIT:    2415367  MISS:     537148
L2C WRITEBACK ACCESS:    1163641  HIT:    1161429  MISS:       2212
L2C PREFETCH  REQUESTED:    4094095  ISSUED:    4090337  USEFUL:      23008  USELESS:     513786
L2C AVERAGE MISS LATENCY: 203.954 cycles
LLC TOTAL     ACCESS:    4095752  HIT:    2650750  MISS:    1445002
LLC LOAD      ACCESS:     389285  HIT:     270623  MISS:     118662
LLC RFO       ACCESS:     925866  HIT:     137174  MISS:     788692
LLC PREFETCH  ACCESS:    1683214  HIT:    1147558  MISS:     535656
LLC WRITEBACK ACCESS:    1097387  HIT:    1095395  MISS:       1992
LLC PREFETCH  REQUESTED:          0  ISSUED:          0  USEFUL:      37304  USELESS:     499273
LLC AVERAGE MISS LATENCY: 262.863 cycles
Major fault: 0 Minor fault: 22091
CPU 0 L1D next line prefetcher final stats

DRAM Statistics
 CHANNEL 0
 RQ ROW_BUFFER_HIT:     414019  ROW_BUFFER_MISS:    1028781
 DBUS_CONGESTED:    1395037
 WQ ROW_BUFFER_HIT:     251033  ROW_BUFFER_MISS:     638121  FULL:          0

 AVG_CONGESTED_CYCLE: 6

CPU 0 Branch Prediction Accuracy: 96.3206% MPKI: 6.08594 Average ROB Occupancy at Mispredict: 67.5394

Branch types
NOT_BRANCH: 41729374 83.4587%
BRANCH_DIRECT_JUMP: 458219 0.916438%
BRANCH_INDIRECT: 49088 0.098176%
BRANCH_CONDITIONAL: 5938510 11.877%
BRANCH_DIRECT_CALL: 745128 1.49026%
BRANCH_INDIRECT_CALL: 167106 0.334212%
BRANCH_RETURN: 912219 1.82444%
BRANCH_OTHER: 0 0%

