Initialize SIGNATURE TABLE
ST_SET: 1
ST_WAY: 256
ST_TAG_BIT: 16
ST_TAG_MASK: ffff

Initialize PATTERN TABLE
PT_SET: 512
PT_WAY: 4
SIG_DELTA_BIT: 7
C_SIG_BIT: 4
C_DELTA_BIT: 4

Initialize PREFETCH FILTER
FILTER_SET: 1024

*** ChampSim Multicore Out-of-Order Simulator ***

Warmup Instructions: 50000000
Simulation Instructions: 50000000
Number of CPUs: 1
LLC sets: 2048
LLC ways: 16
Off-chip DRAM Size: 4096 MB Channels: 1 Width: 64-bit Data Rate: 3200 MT/s

CPU 0 runs /home/xubinfang/Desktop/ChampSim/dpc3_traces/server_021.champsimtrace.xz
CPU 0 Bimodal branch predictor
CPU 0 L1D next line prefetcher
Heartbeat CPU 0 instructions: 10000000 cycles: 3628901 heartbeat IPC: 2.75566 cumulative IPC: 2.75566 (Simulation time: 0 hr 0 min 33 sec) 
Heartbeat CPU 0 instructions: 20000000 cycles: 7252219 heartbeat IPC: 2.7599 cumulative IPC: 2.75778 (Simulation time: 0 hr 1 min 7 sec) 
Heartbeat CPU 0 instructions: 30000003 cycles: 10906398 heartbeat IPC: 2.73659 cumulative IPC: 2.75068 (Simulation time: 0 hr 1 min 41 sec) 
Heartbeat CPU 0 instructions: 40000001 cycles: 14525103 heartbeat IPC: 2.76342 cumulative IPC: 2.75385 (Simulation time: 0 hr 2 min 17 sec) 
Heartbeat CPU 0 instructions: 50000002 cycles: 18165719 heartbeat IPC: 2.74679 cumulative IPC: 2.75244 (Simulation time: 0 hr 2 min 48 sec) 

Warmup complete CPU 0 instructions: 50000002 cycles: 18165719 (Simulation time: 0 hr 2 min 48 sec) 

Heartbeat CPU 0 instructions: 60000001 cycles: 38015694 heartbeat IPC: 0.503779 cumulative IPC: 0.503779 (Simulation time: 0 hr 3 min 26 sec) 
Heartbeat CPU 0 instructions: 70000002 cycles: 58066288 heartbeat IPC: 0.498738 cumulative IPC: 0.501246 (Simulation time: 0 hr 4 min 5 sec) 
Heartbeat CPU 0 instructions: 80000001 cycles: 77948381 heartbeat IPC: 0.502965 cumulative IPC: 0.501818 (Simulation time: 0 hr 4 min 42 sec) 
Heartbeat CPU 0 instructions: 90000001 cycles: 97895963 heartbeat IPC: 0.501314 cumulative IPC: 0.501692 (Simulation time: 0 hr 5 min 22 sec) 
Heartbeat CPU 0 instructions: 100000002 cycles: 117835816 heartbeat IPC: 0.501508 cumulative IPC: 0.501655 (Simulation time: 0 hr 6 min 3 sec) 
Finished CPU 0 instructions: 50000000 cycles: 99670097 cumulative IPC: 0.501655 (Simulation time: 0 hr 6 min 3 sec) 

ChampSim completed all CPUs

Region of Interest Statistics

CPU 0 cumulative IPC: 0.501655 instructions: 50000000 cycles: 99670097
L1D TOTAL     ACCESS:   20735621  HIT:   18531950  MISS:    2203671
L1D LOAD      ACCESS:    8023080  HIT:    7318421  MISS:     704659
L1D RFO       ACCESS:    5936648  HIT:    4960276  MISS:     976372
L1D PREFETCH  ACCESS:    6775893  HIT:    6253253  MISS:     522640
L1D WRITEBACK ACCESS:          0  HIT:          0  MISS:          0
L1D PREFETCH  REQUESTED:    8074756  ISSUED:    7909696  USEFUL:     200846  USELESS:     321788
L1D AVERAGE MISS LATENCY: 172.107 cycles
L1I TOTAL     ACCESS:    9774877  HIT:    7333849  MISS:    2441028
L1I LOAD      ACCESS:    9774877  HIT:    7333849  MISS:    2441028
L1I RFO       ACCESS:          0  HIT:          0  MISS:          0
L1I PREFETCH  ACCESS:          0  HIT:          0  MISS:          0
L1I WRITEBACK ACCESS:          0  HIT:          0  MISS:          0
L1I PREFETCH  REQUESTED:          0  ISSUED:          0  USEFUL:          0  USELESS:          0
L1I AVERAGE MISS LATENCY: 17.0795 cycles
L2C TOTAL     ACCESS:    7989711  HIT:    6128516  MISS:    1861195
L2C LOAD      ACCESS:    2911864  HIT:    2537594  MISS:     374270
L2C RFO       ACCESS:     975907  HIT:      22209  MISS:     953698
L2C PREFETCH  ACCESS:    2922061  HIT:    2391322  MISS:     530739
L2C WRITEBACK ACCESS:    1179879  HIT:    1177391  MISS:       2488
L2C PREFETCH  REQUESTED:    3998123  ISSUED:    3994668  USEFUL:      20665  USELESS:     510109
L2C AVERAGE MISS LATENCY: 208.407 cycles
LLC TOTAL     ACCESS:    4074533  HIT:    2693992  MISS:    1380541
LLC LOAD      ACCESS:     373889  HIT:     285322  MISS:      88567
LLC RFO       ACCESS:     953697  HIT:     141806  MISS:     811891
LLC PREFETCH  ACCESS:    1635270  HIT:    1157258  MISS:     478012
LLC WRITEBACK ACCESS:    1111677  HIT:    1109606  MISS:       2071
LLC PREFETCH  REQUESTED:          0  ISSUED:          0  USEFUL:      32124  USELESS:     445564
LLC AVERAGE MISS LATENCY: 275.192 cycles
Major fault: 0 Minor fault: 22289
CPU 0 L1D next line prefetcher final stats

DRAM Statistics
 CHANNEL 0
 RQ ROW_BUFFER_HIT:     405975  ROW_BUFFER_MISS:     972301
 DBUS_CONGESTED:    1376294
 WQ ROW_BUFFER_HIT:     262069  ROW_BUFFER_MISS:     632845  FULL:          0

 AVG_CONGESTED_CYCLE: 6

CPU 0 Branch Prediction Accuracy: 96.6277% MPKI: 5.5315 Average ROB Occupancy at Mispredict: 63.986

Branch types
NOT_BRANCH: 41798346 83.5967%
BRANCH_DIRECT_JUMP: 445210 0.89042%
BRANCH_INDIRECT: 50481 0.100962%
BRANCH_CONDITIONAL: 5868214 11.7364%
BRANCH_DIRECT_CALL: 758222 1.51644%
BRANCH_INDIRECT_CALL: 160492 0.320984%
BRANCH_RETURN: 918713 1.83743%
BRANCH_OTHER: 0 0%

