Initialize SIGNATURE TABLE
ST_SET: 1
ST_WAY: 256
ST_TAG_BIT: 16
ST_TAG_MASK: ffff

Initialize PATTERN TABLE
PT_SET: 512
PT_WAY: 4
SIG_DELTA_BIT: 7
C_SIG_BIT: 4
C_DELTA_BIT: 4

Initialize PREFETCH FILTER
FILTER_SET: 1024

*** ChampSim Multicore Out-of-Order Simulator ***

Warmup Instructions: 50000000
Simulation Instructions: 50000000
Number of CPUs: 1
LLC sets: 2048
LLC ways: 16
Off-chip DRAM Size: 4096 MB Channels: 1 Width: 64-bit Data Rate: 3200 MT/s

CPU 0 runs /home/xubinfang/Desktop/ChampSim/dpc3_traces/spec_gobmk_002.champsimtrace.xz
CPU 0 Bimodal branch predictor
CPU 0 L1D next line prefetcher
Heartbeat CPU 0 instructions: 10000001 cycles: 3287470 heartbeat IPC: 3.04185 cumulative IPC: 3.04185 (Simulation time: 0 hr 0 min 28 sec) 
Heartbeat CPU 0 instructions: 20000000 cycles: 6619095 heartbeat IPC: 3.00154 cumulative IPC: 3.02156 (Simulation time: 0 hr 0 min 57 sec) 
Heartbeat CPU 0 instructions: 30000000 cycles: 9957074 heartbeat IPC: 2.99582 cumulative IPC: 3.01293 (Simulation time: 0 hr 1 min 28 sec) 
Heartbeat CPU 0 instructions: 40000000 cycles: 13266540 heartbeat IPC: 3.02164 cumulative IPC: 3.0151 (Simulation time: 0 hr 1 min 59 sec) 
Heartbeat CPU 0 instructions: 50000003 cycles: 16530112 heartbeat IPC: 3.06413 cumulative IPC: 3.02478 (Simulation time: 0 hr 2 min 25 sec) 

Warmup complete CPU 0 instructions: 50000003 cycles: 16530112 (Simulation time: 0 hr 2 min 25 sec) 

Heartbeat CPU 0 instructions: 60000001 cycles: 25732040 heartbeat IPC: 1.08673 cumulative IPC: 1.08673 (Simulation time: 0 hr 2 min 46 sec) 
Heartbeat CPU 0 instructions: 70000001 cycles: 34923707 heartbeat IPC: 1.08794 cumulative IPC: 1.08733 (Simulation time: 0 hr 3 min 8 sec) 
Heartbeat CPU 0 instructions: 80000002 cycles: 44052971 heartbeat IPC: 1.09538 cumulative IPC: 1.09 (Simulation time: 0 hr 3 min 31 sec) 
Heartbeat CPU 0 instructions: 90000000 cycles: 53051598 heartbeat IPC: 1.11128 cumulative IPC: 1.09525 (Simulation time: 0 hr 3 min 53 sec) 
Heartbeat CPU 0 instructions: 100000003 cycles: 62246847 heartbeat IPC: 1.08752 cumulative IPC: 1.09369 (Simulation time: 0 hr 4 min 17 sec) 
Finished CPU 0 instructions: 50000000 cycles: 45716735 cumulative IPC: 1.09369 (Simulation time: 0 hr 4 min 17 sec) 

ChampSim completed all CPUs

Region of Interest Statistics

CPU 0 cumulative IPC: 1.09369 instructions: 50000000 cycles: 45716735
L1D TOTAL     ACCESS:   18230170  HIT:   18107018  MISS:     123152
L1D LOAD      ACCESS:    6950440  HIT:    6916265  MISS:      34175
L1D RFO       ACCESS:    4406273  HIT:    4363648  MISS:      42625
L1D PREFETCH  ACCESS:    6873457  HIT:    6827105  MISS:      46352
L1D WRITEBACK ACCESS:          0  HIT:          0  MISS:          0
L1D PREFETCH  REQUESTED:    6953030  ISSUED:    6885718  USEFUL:      17277  USELESS:      29257
L1D AVERAGE MISS LATENCY: 50.2817 cycles
L1I TOTAL     ACCESS:    8945926  HIT:    8522448  MISS:     423478
L1I LOAD      ACCESS:    8945926  HIT:    8522448  MISS:     423478
L1I RFO       ACCESS:          0  HIT:          0  MISS:          0
L1I PREFETCH  ACCESS:          0  HIT:          0  MISS:          0
L1I WRITEBACK ACCESS:          0  HIT:          0  MISS:          0
L1I PREFETCH  REQUESTED:          0  ISSUED:          0  USEFUL:          0  USELESS:          0
L1I AVERAGE MISS LATENCY: 14.6443 cycles
L2C TOTAL     ACCESS:    1000380  HIT:     963383  MISS:      36997
L2C LOAD      ACCESS:     456673  HIT:     441045  MISS:      15628
L2C RFO       ACCESS:      42531  HIT:      39861  MISS:       2670
L2C PREFETCH  ACCESS:     426973  HIT:     408404  MISS:      18569
L2C WRITEBACK ACCESS:      74203  HIT:      74073  MISS:        130
L2C PREFETCH  REQUESTED:     447446  ISSUED:     447441  USEFUL:       2018  USELESS:      17042
L2C AVERAGE MISS LATENCY: 125.387 cycles
LLC TOTAL     ACCESS:      95780  HIT:      64910  MISS:      30870
LLC LOAD      ACCESS:      15628  HIT:       6652  MISS:       8976
LLC RFO       ACCESS:       2670  HIT:       1051  MISS:       1619
LLC PREFETCH  ACCESS:      59633  HIT:      39882  MISS:      19751
LLC WRITEBACK ACCESS:      17849  HIT:      17325  MISS:        524
LLC PREFETCH  REQUESTED:          0  ISSUED:          0  USEFUL:       2204  USELESS:      17658
LLC AVERAGE MISS LATENCY: 181.757 cycles
Major fault: 0 Minor fault: 2776
CPU 0 L1D next line prefetcher final stats

DRAM Statistics
 CHANNEL 0
 RQ ROW_BUFFER_HIT:       2557  ROW_BUFFER_MISS:      27789
 DBUS_CONGESTED:      14846
 WQ ROW_BUFFER_HIT:        857  ROW_BUFFER_MISS:      12316  FULL:          0

 AVG_CONGESTED_CYCLE: 4

CPU 0 Branch Prediction Accuracy: 86.4799% MPKI: 23.0751 Average ROB Occupancy at Mispredict: 26.5751

Branch types
NOT_BRANCH: 41466069 82.9321%
BRANCH_DIRECT_JUMP: 464313 0.928626%
BRANCH_INDIRECT: 32 6.4e-05%
BRANCH_CONDITIONAL: 7069453 14.1389%
BRANCH_DIRECT_CALL: 499587 0.999174%
BRANCH_INDIRECT_CALL: 342 0.000684%
BRANCH_RETURN: 499906 0.999812%
BRANCH_OTHER: 0 0%

