Initialize SIGNATURE TABLE
ST_SET: 1
ST_WAY: 256
ST_TAG_BIT: 16
ST_TAG_MASK: ffff

Initialize PATTERN TABLE
PT_SET: 512
PT_WAY: 4
SIG_DELTA_BIT: 7
C_SIG_BIT: 4
C_DELTA_BIT: 4

Initialize PREFETCH FILTER
FILTER_SET: 1024

*** ChampSim Multicore Out-of-Order Simulator ***

Warmup Instructions: 50000000
Simulation Instructions: 50000000
Number of CPUs: 1
LLC sets: 2048
LLC ways: 16
Off-chip DRAM Size: 4096 MB Channels: 1 Width: 64-bit Data Rate: 3200 MT/s

CPU 0 runs /home/xubinfang/Desktop/ChampSim/dpc3_traces/spec_perlbench_001.champsimtrace.xz
CPU 0 Bimodal branch predictor
CPU 0 L1D next line prefetcher
Heartbeat CPU 0 instructions: 10000000 cycles: 3276036 heartbeat IPC: 3.05247 cumulative IPC: 3.05247 (Simulation time: 0 hr 0 min 28 sec) 
Heartbeat CPU 0 instructions: 20000000 cycles: 6540940 heartbeat IPC: 3.06288 cumulative IPC: 3.05766 (Simulation time: 0 hr 1 min 0 sec) 
Heartbeat CPU 0 instructions: 30000002 cycles: 9858102 heartbeat IPC: 3.01463 cumulative IPC: 3.04318 (Simulation time: 0 hr 1 min 31 sec) 
Heartbeat CPU 0 instructions: 40000002 cycles: 13113879 heartbeat IPC: 3.07146 cumulative IPC: 3.0502 (Simulation time: 0 hr 2 min 0 sec) 
Heartbeat CPU 0 instructions: 50000001 cycles: 16387584 heartbeat IPC: 3.05464 cumulative IPC: 3.05109 (Simulation time: 0 hr 2 min 29 sec) 

Warmup complete CPU 0 instructions: 50000001 cycles: 16387584 (Simulation time: 0 hr 2 min 29 sec) 

Heartbeat CPU 0 instructions: 60000001 cycles: 25923642 heartbeat IPC: 1.04865 cumulative IPC: 1.04865 (Simulation time: 0 hr 2 min 55 sec) 
Heartbeat CPU 0 instructions: 70000000 cycles: 35663203 heartbeat IPC: 1.02674 cumulative IPC: 1.03758 (Simulation time: 0 hr 3 min 23 sec) 
Heartbeat CPU 0 instructions: 80000000 cycles: 45115202 heartbeat IPC: 1.05798 cumulative IPC: 1.04429 (Simulation time: 0 hr 3 min 52 sec) 
Heartbeat CPU 0 instructions: 90000003 cycles: 51367425 heartbeat IPC: 1.59943 cumulative IPC: 1.14352 (Simulation time: 0 hr 4 min 21 sec) 
Heartbeat CPU 0 instructions: 100000002 cycles: 57733593 heartbeat IPC: 1.5708 cumulative IPC: 1.20931 (Simulation time: 0 hr 4 min 42 sec) 
Finished CPU 0 instructions: 50000001 cycles: 41346009 cumulative IPC: 1.20931 (Simulation time: 0 hr 4 min 42 sec) 

ChampSim completed all CPUs

Region of Interest Statistics

CPU 0 cumulative IPC: 1.20931 instructions: 50000001 cycles: 41346009
L1D TOTAL     ACCESS:   21632509  HIT:   21217366  MISS:     415143
L1D LOAD      ACCESS:    7628829  HIT:    7416426  MISS:     212403
L1D RFO       ACCESS:    6562532  HIT:    6543970  MISS:      18562
L1D PREFETCH  ACCESS:    7441148  HIT:    7256970  MISS:     184178
L1D WRITEBACK ACCESS:          0  HIT:          0  MISS:          0
L1D PREFETCH  REQUESTED:    7649496  ISSUED:    7535600  USEFUL:      56464  USELESS:     127709
L1D AVERAGE MISS LATENCY: 57.382 cycles
L1I TOTAL     ACCESS:    9105392  HIT:    8797860  MISS:     307532
L1I LOAD      ACCESS:    9105392  HIT:    8797860  MISS:     307532
L1I RFO       ACCESS:          0  HIT:          0  MISS:          0
L1I PREFETCH  ACCESS:          0  HIT:          0  MISS:          0
L1I WRITEBACK ACCESS:          0  HIT:          0  MISS:          0
L1I PREFETCH  REQUESTED:          0  ISSUED:          0  USEFUL:          0  USELESS:          0
L1I AVERAGE MISS LATENCY: 18.8465 cycles
L2C TOTAL     ACCESS:    1120430  HIT:     956729  MISS:     163701
L2C LOAD      ACCESS:     513559  HIT:     420075  MISS:      93484
L2C RFO       ACCESS:      18368  HIT:      13104  MISS:       5264
L2C PREFETCH  ACCESS:     509579  HIT:     444937  MISS:      64642
L2C WRITEBACK ACCESS:      78924  HIT:      78613  MISS:        311
L2C PREFETCH  REQUESTED:     634886  ISSUED:     634886  USEFUL:       3805  USELESS:      61030
L2C AVERAGE MISS LATENCY: 118.012 cycles
LLC TOTAL     ACCESS:     361033  HIT:     219075  MISS:     141958
LLC LOAD      ACCESS:      93466  HIT:      42349  MISS:      51117
LLC RFO       ACCESS:       5264  HIT:       2212  MISS:       3052
LLC PREFETCH  ACCESS:     237562  HIT:     150288  MISS:      87274
LLC WRITEBACK ACCESS:      24741  HIT:      24226  MISS:        515
LLC PREFETCH  REQUESTED:          0  ISSUED:          0  USEFUL:      15747  USELESS:      71619
LLC AVERAGE MISS LATENCY: 157.673 cycles
Major fault: 0 Minor fault: 6364
CPU 0 L1D next line prefetcher final stats

DRAM Statistics
 CHANNEL 0
 RQ ROW_BUFFER_HIT:      32528  ROW_BUFFER_MISS:     108915
 DBUS_CONGESTED:      56831
 WQ ROW_BUFFER_HIT:       4186  ROW_BUFFER_MISS:      13125  FULL:          0

 AVG_CONGESTED_CYCLE: 4

CPU 0 Branch Prediction Accuracy: 95.0896% MPKI: 9.66922 Average ROB Occupancy at Mispredict: 49.1991

Branch types
NOT_BRANCH: 40154100 80.3082%
BRANCH_DIRECT_JUMP: 817094 1.63419%
BRANCH_INDIRECT: 303787 0.607574%
BRANCH_CONDITIONAL: 7492103 14.9842%
BRANCH_DIRECT_CALL: 471777 0.943554%
BRANCH_INDIRECT_CALL: 144546 0.289092%
BRANCH_RETURN: 616324 1.23265%
BRANCH_OTHER: 0 0%

