Initialize SIGNATURE TABLE
ST_SET: 1
ST_WAY: 256
ST_TAG_BIT: 16
ST_TAG_MASK: ffff

Initialize PATTERN TABLE
PT_SET: 512
PT_WAY: 4
SIG_DELTA_BIT: 7
C_SIG_BIT: 4
C_DELTA_BIT: 4

Initialize PREFETCH FILTER
FILTER_SET: 1024

*** ChampSim Multicore Out-of-Order Simulator ***

Warmup Instructions: 50000000
Simulation Instructions: 50000000
Number of CPUs: 1
LLC sets: 2048
LLC ways: 16
Off-chip DRAM Size: 4096 MB Channels: 1 Width: 64-bit Data Rate: 3200 MT/s

CPU 0 runs /home/xubinfang/Desktop/ChampSim/dpc3_traces/spec_gobmk_001.champsimtrace.xz
CPU 0 Bimodal branch predictor
CPU 0 L1D next line prefetcher
Heartbeat CPU 0 instructions: 10000003 cycles: 3506603 heartbeat IPC: 2.85176 cumulative IPC: 2.85176 (Simulation time: 0 hr 0 min 24 sec) 
Heartbeat CPU 0 instructions: 20000002 cycles: 6986709 heartbeat IPC: 2.87348 cumulative IPC: 2.86258 (Simulation time: 0 hr 0 min 51 sec) 
Heartbeat CPU 0 instructions: 30000002 cycles: 10505136 heartbeat IPC: 2.84218 cumulative IPC: 2.85575 (Simulation time: 0 hr 1 min 18 sec) 
Heartbeat CPU 0 instructions: 40000001 cycles: 14023945 heartbeat IPC: 2.84187 cumulative IPC: 2.85226 (Simulation time: 0 hr 1 min 44 sec) 
Heartbeat CPU 0 instructions: 50000001 cycles: 17563638 heartbeat IPC: 2.8251 cumulative IPC: 2.84679 (Simulation time: 0 hr 2 min 15 sec) 

Warmup complete CPU 0 instructions: 50000001 cycles: 17563638 (Simulation time: 0 hr 2 min 15 sec) 

Heartbeat CPU 0 instructions: 60000000 cycles: 27739758 heartbeat IPC: 0.982693 cumulative IPC: 0.982693 (Simulation time: 0 hr 2 min 37 sec) 
Heartbeat CPU 0 instructions: 70000002 cycles: 37730402 heartbeat IPC: 1.00094 cumulative IPC: 0.991731 (Simulation time: 0 hr 3 min 2 sec) 
Heartbeat CPU 0 instructions: 80000003 cycles: 48051213 heartbeat IPC: 0.968916 cumulative IPC: 0.984007 (Simulation time: 0 hr 3 min 26 sec) 
Heartbeat CPU 0 instructions: 90000001 cycles: 58131401 heartbeat IPC: 0.992045 cumulative IPC: 0.986005 (Simulation time: 0 hr 3 min 49 sec) 
Heartbeat CPU 0 instructions: 100000000 cycles: 68438282 heartbeat IPC: 0.970226 cumulative IPC: 0.982808 (Simulation time: 0 hr 4 min 12 sec) 
Finished CPU 0 instructions: 50000002 cycles: 50874645 cumulative IPC: 0.982808 (Simulation time: 0 hr 4 min 12 sec) 

ChampSim completed all CPUs

Region of Interest Statistics

CPU 0 cumulative IPC: 0.982808 instructions: 50000002 cycles: 50874645
L1D TOTAL     ACCESS:   18572953  HIT:   18193247  MISS:     379706
L1D LOAD      ACCESS:    7494276  HIT:    7359506  MISS:     134770
L1D RFO       ACCESS:    3721261  HIT:    3617058  MISS:     104203
L1D PREFETCH  ACCESS:    7357416  HIT:    7216683  MISS:     140733
L1D WRITEBACK ACCESS:          0  HIT:          0  MISS:          0
L1D PREFETCH  REQUESTED:    7498921  ISSUED:    7415174  USEFUL:      45952  USELESS:      94786
L1D AVERAGE MISS LATENCY: 33.4546 cycles
L1I TOTAL     ACCESS:    9032358  HIT:    8707877  MISS:     324481
L1I LOAD      ACCESS:    9032358  HIT:    8707877  MISS:     324481
L1I RFO       ACCESS:          0  HIT:          0  MISS:          0
L1I PREFETCH  ACCESS:          0  HIT:          0  MISS:          0
L1I WRITEBACK ACCESS:          0  HIT:          0  MISS:          0
L1I PREFETCH  REQUESTED:          0  ISSUED:          0  USEFUL:          0  USELESS:          0
L1I AVERAGE MISS LATENCY: 15.6144 cycles
L2C TOTAL     ACCESS:    1217389  HIT:    1094561  MISS:     122828
L2C LOAD      ACCESS:     435048  HIT:     390379  MISS:      44669
L2C RFO       ACCESS:     103890  HIT:      70269  MISS:      33621
L2C PREFETCH  ACCESS:     539135  HIT:     494649  MISS:      44486
L2C WRITEBACK ACCESS:     139316  HIT:     139264  MISS:         52
L2C PREFETCH  REQUESTED:     594574  ISSUED:     594562  USEFUL:       3380  USELESS:      41196
L2C AVERAGE MISS LATENCY: 65.3424 cycles
LLC TOTAL     ACCESS:     265441  HIT:     229094  MISS:      36347
LLC LOAD      ACCESS:      44664  HIT:      35965  MISS:       8699
LLC RFO       ACCESS:      33621  HIT:      26739  MISS:       6882
LLC PREFETCH  ACCESS:     142832  HIT:     122378  MISS:      20454
LLC WRITEBACK ACCESS:      44324  HIT:      44012  MISS:        312
LLC PREFETCH  REQUESTED:          0  ISSUED:          0  USEFUL:       1511  USELESS:      17567
LLC AVERAGE MISS LATENCY: 177.903 cycles
Major fault: 0 Minor fault: 4156
CPU 0 L1D next line prefetcher final stats

DRAM Statistics
 CHANNEL 0
 RQ ROW_BUFFER_HIT:       4757  ROW_BUFFER_MISS:      31278
 DBUS_CONGESTED:      21017
 WQ ROW_BUFFER_HIT:       1524  ROW_BUFFER_MISS:      14749  FULL:          0

 AVG_CONGESTED_CYCLE: 4

CPU 0 Branch Prediction Accuracy: 88.3128% MPKI: 21.7482 Average ROB Occupancy at Mispredict: 34.1479

Branch types
NOT_BRANCH: 40695354 81.3907%
BRANCH_DIRECT_JUMP: 422107 0.844214%
BRANCH_INDIRECT: 65 0.00013%
BRANCH_CONDITIONAL: 8105001 16.21%
BRANCH_DIRECT_CALL: 374912 0.749824%
BRANCH_INDIRECT_CALL: 13657 0.027314%
BRANCH_RETURN: 388556 0.777112%
BRANCH_OTHER: 0 0%

