Initialize SIGNATURE TABLE
ST_SET: 1
ST_WAY: 256
ST_TAG_BIT: 16
ST_TAG_MASK: ffff

Initialize PATTERN TABLE
PT_SET: 512
PT_WAY: 4
SIG_DELTA_BIT: 7
C_SIG_BIT: 4
C_DELTA_BIT: 4

Initialize PREFETCH FILTER
FILTER_SET: 1024

*** ChampSim Multicore Out-of-Order Simulator ***

Warmup Instructions: 50000000
Simulation Instructions: 50000000
Number of CPUs: 1
LLC sets: 2048
LLC ways: 16
Off-chip DRAM Size: 4096 MB Channels: 1 Width: 64-bit Data Rate: 3200 MT/s

CPU 0 runs /home/xubinfang/Desktop/ChampSim/dpc3_traces/spec_x264_001.champsimtrace.xz
CPU 0 Bimodal branch predictor
CPU 0 L1D next line prefetcher
Heartbeat CPU 0 instructions: 10000002 cycles: 3059096 heartbeat IPC: 3.26894 cumulative IPC: 3.26894 (Simulation time: 0 hr 0 min 20 sec) 
Heartbeat CPU 0 instructions: 20000002 cycles: 6108421 heartbeat IPC: 3.27941 cumulative IPC: 3.27417 (Simulation time: 0 hr 0 min 40 sec) 
Heartbeat CPU 0 instructions: 30000002 cycles: 9143476 heartbeat IPC: 3.29483 cumulative IPC: 3.28103 (Simulation time: 0 hr 1 min 0 sec) 
Heartbeat CPU 0 instructions: 40000000 cycles: 12187151 heartbeat IPC: 3.2855 cumulative IPC: 3.28215 (Simulation time: 0 hr 1 min 20 sec) 
Heartbeat CPU 0 instructions: 50000000 cycles: 15229295 heartbeat IPC: 3.28716 cumulative IPC: 3.28315 (Simulation time: 0 hr 1 min 41 sec) 

Warmup complete CPU 0 instructions: 50000004 cycles: 15229296 (Simulation time: 0 hr 1 min 41 sec) 

Heartbeat CPU 0 instructions: 60000001 cycles: 21751205 heartbeat IPC: 1.53329 cumulative IPC: 1.53329 (Simulation time: 0 hr 1 min 55 sec) 
Heartbeat CPU 0 instructions: 70000002 cycles: 28245346 heartbeat IPC: 1.53985 cumulative IPC: 1.53656 (Simulation time: 0 hr 2 min 9 sec) 
Heartbeat CPU 0 instructions: 80000003 cycles: 34935222 heartbeat IPC: 1.4948 cumulative IPC: 1.52238 (Simulation time: 0 hr 2 min 23 sec) 
Heartbeat CPU 0 instructions: 90000002 cycles: 41586069 heartbeat IPC: 1.50357 cumulative IPC: 1.51764 (Simulation time: 0 hr 2 min 37 sec) 
Heartbeat CPU 0 instructions: 100000003 cycles: 48065025 heartbeat IPC: 1.54346 cumulative IPC: 1.52273 (Simulation time: 0 hr 2 min 51 sec) 
Finished CPU 0 instructions: 50000001 cycles: 32835731 cumulative IPC: 1.52273 (Simulation time: 0 hr 2 min 51 sec) 

ChampSim completed all CPUs

Region of Interest Statistics

CPU 0 cumulative IPC: 1.52273 instructions: 50000001 cycles: 32835731
L1D TOTAL     ACCESS:   13210277  HIT:   13044581  MISS:     165696
L1D LOAD      ACCESS:    5212753  HIT:    5157295  MISS:      55458
L1D RFO       ACCESS:    2885005  HIT:    2850052  MISS:      34953
L1D PREFETCH  ACCESS:    5112519  HIT:    5037234  MISS:      75285
L1D WRITEBACK ACCESS:          0  HIT:          0  MISS:          0
L1D PREFETCH  REQUESTED:    5225489  ISSUED:    5162388  USEFUL:      26450  USELESS:      48637
L1D AVERAGE MISS LATENCY: 39.1312 cycles
L1I TOTAL     ACCESS:    8052436  HIT:    7792326  MISS:     260110
L1I LOAD      ACCESS:    8052436  HIT:    7792326  MISS:     260110
L1I RFO       ACCESS:          0  HIT:          0  MISS:          0
L1I PREFETCH  ACCESS:          0  HIT:          0  MISS:          0
L1I WRITEBACK ACCESS:          0  HIT:          0  MISS:          0
L1I PREFETCH  REQUESTED:          0  ISSUED:          0  USEFUL:          0  USELESS:          0
L1I AVERAGE MISS LATENCY: 14.3158 cycles
L2C TOTAL     ACCESS:     847993  HIT:     809234  MISS:      38759
L2C LOAD      ACCESS:     314839  HIT:     307883  MISS:       6956
L2C RFO       ACCESS:      34831  HIT:      22756  MISS:      12075
L2C PREFETCH  ACCESS:     454330  HIT:     434667  MISS:      19663
L2C WRITEBACK ACCESS:      43993  HIT:      43928  MISS:         65
L2C PREFETCH  REQUESTED:     518200  ISSUED:     517547  USEFUL:       8971  USELESS:      11025
L2C AVERAGE MISS LATENCY: 104.107 cycles
LLC TOTAL     ACCESS:     131525  HIT:     102468  MISS:      29057
LLC LOAD      ACCESS:       6935  HIT:       4845  MISS:       2090
LLC RFO       ACCESS:      12075  HIT:        475  MISS:      11600
LLC PREFETCH  ACCESS:      98930  HIT:      83635  MISS:      15295
LLC WRITEBACK ACCESS:      13585  HIT:      13513  MISS:         72
LLC PREFETCH  REQUESTED:          0  ISSUED:          0  USEFUL:       1698  USELESS:      13882
LLC AVERAGE MISS LATENCY: 162.403 cycles
Major fault: 0 Minor fault: 1284
CPU 0 L1D next line prefetcher final stats

DRAM Statistics
 CHANNEL 0
 RQ ROW_BUFFER_HIT:       9089  ROW_BUFFER_MISS:      19896
 DBUS_CONGESTED:      12087
 WQ ROW_BUFFER_HIT:       2863  ROW_BUFFER_MISS:       9933  FULL:          0

 AVG_CONGESTED_CYCLE: 6

CPU 0 Branch Prediction Accuracy: 93.6588% MPKI: 3.88304 Average ROB Occupancy at Mispredict: 24.3763

Branch types
NOT_BRANCH: 46937890 93.8758%
BRANCH_DIRECT_JUMP: 170816 0.341632%
BRANCH_INDIRECT: 0 0%
BRANCH_CONDITIONAL: 2532771 5.06554%
BRANCH_DIRECT_CALL: 114227 0.228454%
BRANCH_INDIRECT_CALL: 64863 0.129726%
BRANCH_RETURN: 179089 0.358178%
BRANCH_OTHER: 0 0%

