Initialize SIGNATURE TABLE
ST_SET: 1
ST_WAY: 256
ST_TAG_BIT: 16
ST_TAG_MASK: ffff

Initialize PATTERN TABLE
PT_SET: 512
PT_WAY: 4
SIG_DELTA_BIT: 7
C_SIG_BIT: 4
C_DELTA_BIT: 4

Initialize PREFETCH FILTER
FILTER_SET: 1024

*** ChampSim Multicore Out-of-Order Simulator ***

Warmup Instructions: 50000000
Simulation Instructions: 50000000
Number of CPUs: 1
LLC sets: 2048
LLC ways: 16
Off-chip DRAM Size: 4096 MB Channels: 1 Width: 64-bit Data Rate: 3200 MT/s

CPU 0 runs /home/xubinfang/Desktop/ChampSim/dpc3_traces/client_007.champsimtrace.xz
CPU 0 Bimodal branch predictor
CPU 0 L1I next line prefetcher
CPU 0 L1D next line prefetcher
Heartbeat CPU 0 instructions: 10000001 cycles: 3641885 heartbeat IPC: 2.74583 cumulative IPC: 2.74583 (Simulation time: 0 hr 0 min 26 sec) 
Heartbeat CPU 0 instructions: 20000003 cycles: 7033502 heartbeat IPC: 2.94845 cumulative IPC: 2.84353 (Simulation time: 0 hr 0 min 51 sec) 
Heartbeat CPU 0 instructions: 30000000 cycles: 10905314 heartbeat IPC: 2.58277 cumulative IPC: 2.75095 (Simulation time: 0 hr 1 min 17 sec) 
Heartbeat CPU 0 instructions: 40000003 cycles: 15065523 heartbeat IPC: 2.40373 cumulative IPC: 2.65507 (Simulation time: 0 hr 1 min 44 sec) 
Heartbeat CPU 0 instructions: 50000002 cycles: 18470373 heartbeat IPC: 2.93699 cumulative IPC: 2.70704 (Simulation time: 0 hr 2 min 10 sec) 

Warmup complete CPU 0 instructions: 50000002 cycles: 18470373 (Simulation time: 0 hr 2 min 10 sec) 

Heartbeat CPU 0 instructions: 60000001 cycles: 27095455 heartbeat IPC: 1.15941 cumulative IPC: 1.15941 (Simulation time: 0 hr 2 min 35 sec) 
Heartbeat CPU 0 instructions: 70000003 cycles: 36284223 heartbeat IPC: 1.08829 cumulative IPC: 1.12272 (Simulation time: 0 hr 3 min 2 sec) 
Heartbeat CPU 0 instructions: 80000002 cycles: 42642728 heartbeat IPC: 1.5727 cumulative IPC: 1.24109 (Simulation time: 0 hr 3 min 20 sec) 
Heartbeat CPU 0 instructions: 90000000 cycles: 52495583 heartbeat IPC: 1.01493 cumulative IPC: 1.1756 (Simulation time: 0 hr 3 min 42 sec) 
Heartbeat CPU 0 instructions: 100000001 cycles: 62515250 heartbeat IPC: 0.998037 cumulative IPC: 1.13521 (Simulation time: 0 hr 4 min 5 sec) 
Finished CPU 0 instructions: 50000000 cycles: 44044878 cumulative IPC: 1.13521 (Simulation time: 0 hr 4 min 5 sec) 

ChampSim completed all CPUs

Region of Interest Statistics

CPU 0 cumulative IPC: 1.13521 instructions: 50000000 cycles: 44044878
L1D TOTAL     ACCESS:   22510554  HIT:   21339620  MISS:    1170934
L1D LOAD      ACCESS:    8980619  HIT:    8451737  MISS:     528882
L1D RFO       ACCESS:    4965193  HIT:    4875159  MISS:      90034
L1D PREFETCH  ACCESS:    8564742  HIT:    8012724  MISS:     552018
L1D WRITEBACK ACCESS:          0  HIT:          0  MISS:          0
L1D PREFETCH  REQUESTED:    9041131  ISSUED:    8797517  USEFUL:     169435  USELESS:     382600
L1D AVERAGE MISS LATENCY: 33.7582 cycles
L1I TOTAL     ACCESS:    9430820  HIT:    8367503  MISS:    1063317
L1I LOAD      ACCESS:    8965828  HIT:    8338337  MISS:     627491
L1I RFO       ACCESS:          0  HIT:          0  MISS:          0
L1I PREFETCH  ACCESS:     464992  HIT:      29166  MISS:     435826
L1I WRITEBACK ACCESS:          0  HIT:          0  MISS:          0
L1I PREFETCH  REQUESTED:     773747  ISSUED:     773747  USEFUL:     228723  USELESS:     207103
L1I AVERAGE MISS LATENCY: 14.7496 cycles
L2C TOTAL     ACCESS:    3575598  HIT:    3362274  MISS:     213324
L2C LOAD      ACCESS:    1082193  HIT:    1006725  MISS:      75468
L2C RFO       ACCESS:      87832  HIT:      47937  MISS:      39895
L2C PREFETCH  ACCESS:    2077441  HIT:    1979589  MISS:      97852
L2C WRITEBACK ACCESS:     328132  HIT:     328023  MISS:        109
L2C PREFETCH  REQUESTED:    2885573  ISSUED:    2885254  USEFUL:       9773  USELESS:      87354
L2C AVERAGE MISS LATENCY: 117.854 cycles
LLC TOTAL     ACCESS:     936969  HIT:     767058  MISS:     169911
LLC LOAD      ACCESS:      75384  HIT:      39757  MISS:      35627
LLC RFO       ACCESS:      39894  HIT:       7762  MISS:      32132
LLC PREFETCH  ACCESS:     747113  HIT:     645301  MISS:     101812
LLC WRITEBACK ACCESS:      74578  HIT:      74238  MISS:        340
LLC PREFETCH  REQUESTED:          0  ISSUED:          0  USEFUL:      19801  USELESS:      81545
LLC AVERAGE MISS LATENCY: 177.514 cycles
Major fault: 0 Minor fault: 4410
CPU 0 L1I next line prefetcher final stats
CPU 0 L1D next line prefetcher final stats

DRAM Statistics
 CHANNEL 0
 RQ ROW_BUFFER_HIT:      34359  ROW_BUFFER_MISS:     135205
 DBUS_CONGESTED:      93896
 WQ ROW_BUFFER_HIT:      12757  ROW_BUFFER_MISS:      45846  FULL:          0

 AVG_CONGESTED_CYCLE: 5

CPU 0 Branch Prediction Accuracy: 94.8618% MPKI: 8.3988 Average ROB Occupancy at Mispredict: 60.6705

Branch types
NOT_BRANCH: 41826773 83.6535%
BRANCH_DIRECT_JUMP: 735330 1.47066%
BRANCH_INDIRECT: 269194 0.538388%
BRANCH_CONDITIONAL: 5957947 11.9159%
BRANCH_DIRECT_CALL: 368758 0.737516%
BRANCH_INDIRECT_CALL: 226975 0.45395%
BRANCH_RETURN: 614696 1.22939%
BRANCH_OTHER: 0 0%

