Initialize SIGNATURE TABLE
ST_SET: 1
ST_WAY: 256
ST_TAG_BIT: 16
ST_TAG_MASK: ffff

Initialize PATTERN TABLE
PT_SET: 512
PT_WAY: 4
SIG_DELTA_BIT: 7
C_SIG_BIT: 4
C_DELTA_BIT: 4

Initialize PREFETCH FILTER
FILTER_SET: 1024

*** ChampSim Multicore Out-of-Order Simulator ***

Warmup Instructions: 50000000
Simulation Instructions: 50000000
Number of CPUs: 1
LLC sets: 2048
LLC ways: 16
Off-chip DRAM Size: 4096 MB Channels: 1 Width: 64-bit Data Rate: 3200 MT/s

CPU 0 runs /home/xubinfang/Desktop/ChampSim/dpc3_traces/server_022.champsimtrace.xz
CPU 0 Bimodal branch predictor
CPU 0 L1I next line prefetcher
CPU 0 L1D next line prefetcher
Heartbeat CPU 0 instructions: 10000002 cycles: 3625491 heartbeat IPC: 2.75825 cumulative IPC: 2.75825 (Simulation time: 0 hr 0 min 33 sec) 
Heartbeat CPU 0 instructions: 20000001 cycles: 7257660 heartbeat IPC: 2.75318 cumulative IPC: 2.75571 (Simulation time: 0 hr 1 min 5 sec) 
Heartbeat CPU 0 instructions: 30000003 cycles: 10883394 heartbeat IPC: 2.75806 cumulative IPC: 2.75649 (Simulation time: 0 hr 1 min 37 sec) 
Heartbeat CPU 0 instructions: 40000003 cycles: 14516494 heartbeat IPC: 2.75247 cumulative IPC: 2.75549 (Simulation time: 0 hr 2 min 10 sec) 
Heartbeat CPU 0 instructions: 50000002 cycles: 18139516 heartbeat IPC: 2.76013 cumulative IPC: 2.75641 (Simulation time: 0 hr 2 min 45 sec) 

Warmup complete CPU 0 instructions: 50000002 cycles: 18139516 (Simulation time: 0 hr 2 min 45 sec) 

Heartbeat CPU 0 instructions: 60000002 cycles: 36808750 heartbeat IPC: 0.535641 cumulative IPC: 0.535641 (Simulation time: 0 hr 3 min 29 sec) 
Heartbeat CPU 0 instructions: 70000001 cycles: 55518934 heartbeat IPC: 0.534468 cumulative IPC: 0.535054 (Simulation time: 0 hr 4 min 10 sec) 
Heartbeat CPU 0 instructions: 80000001 cycles: 74113564 heartbeat IPC: 0.53779 cumulative IPC: 0.535963 (Simulation time: 0 hr 4 min 59 sec) 
Heartbeat CPU 0 instructions: 90000000 cycles: 92876180 heartbeat IPC: 0.532975 cumulative IPC: 0.535213 (Simulation time: 0 hr 5 min 40 sec) 
Heartbeat CPU 0 instructions: 100000003 cycles: 111485035 heartbeat IPC: 0.537379 cumulative IPC: 0.535644 (Simulation time: 0 hr 6 min 20 sec) 
Finished CPU 0 instructions: 50000001 cycles: 93345519 cumulative IPC: 0.535644 (Simulation time: 0 hr 6 min 20 sec) 

ChampSim completed all CPUs

Region of Interest Statistics

CPU 0 cumulative IPC: 0.535644 instructions: 50000001 cycles: 93345519
L1D TOTAL     ACCESS:   20331454  HIT:   18121038  MISS:    2210416
L1D LOAD      ACCESS:    7835286  HIT:    7137997  MISS:     697289
L1D RFO       ACCESS:    5914312  HIT:    4934485  MISS:     979827
L1D PREFETCH  ACCESS:    6581856  HIT:    6048556  MISS:     533300
L1D WRITEBACK ACCESS:          0  HIT:          0  MISS:          0
L1D PREFETCH  REQUESTED:    7884664  ISSUED:    7716600  USEFUL:     211773  USELESS:     321532
L1D AVERAGE MISS LATENCY: 174.442 cycles
L1I TOTAL     ACCESS:   11108595  HIT:    8004355  MISS:    3104240
L1I LOAD      ACCESS:    9777735  HIT:    7816873  MISS:    1960862
L1I RFO       ACCESS:          0  HIT:          0  MISS:          0
L1I PREFETCH  ACCESS:    1330860  HIT:     187482  MISS:    1143378
L1I WRITEBACK ACCESS:          0  HIT:          0  MISS:          0
L1I PREFETCH  REQUESTED:    2257163  ISSUED:    2257163  USEFUL:     636543  USELESS:     506837
L1I AVERAGE MISS LATENCY: 16.099 cycles
L2C TOTAL     ACCESS:    8274658  HIT:    6378503  MISS:    1896155
L2C LOAD      ACCESS:    2260195  HIT:    1934313  MISS:     325882
L2C RFO       ACCESS:     979313  HIT:      20499  MISS:     958814
L2C PREFETCH  ACCESS:    3849989  HIT:    3241722  MISS:     608267
L2C WRITEBACK ACCESS:    1185161  HIT:    1181969  MISS:       3192
L2C PREFETCH  REQUESTED:    4925463  ISSUED:    4920837  USEFUL:      32851  USELESS:     575378
L2C AVERAGE MISS LATENCY: 207.189 cycles
LLC TOTAL     ACCESS:    4035681  HIT:    2636788  MISS:    1398893
LLC LOAD      ACCESS:     325786  HIT:     239848  MISS:      85938
LLC RFO       ACCESS:     958701  HIT:     141687  MISS:     817014
LLC PREFETCH  ACCESS:    1632673  HIT:    1138882  MISS:     493791
LLC WRITEBACK ACCESS:    1118521  HIT:    1116371  MISS:       2150
LLC PREFETCH  REQUESTED:          0  ISSUED:          0  USEFUL:      31179  USELESS:     463019
LLC AVERAGE MISS LATENCY: 281.39 cycles
Major fault: 0 Minor fault: 23508
CPU 0 L1I next line prefetcher final stats
CPU 0 L1D next line prefetcher final stats

DRAM Statistics
 CHANNEL 0
 RQ ROW_BUFFER_HIT:     413059  ROW_BUFFER_MISS:     983447
 DBUS_CONGESTED:    1412572
 WQ ROW_BUFFER_HIT:     250114  ROW_BUFFER_MISS:     652755  FULL:          0

 AVG_CONGESTED_CYCLE: 6

CPU 0 Branch Prediction Accuracy: 96.645% MPKI: 5.4947 Average ROB Occupancy at Mispredict: 69.3275

Branch types
NOT_BRANCH: 41811018 83.622%
BRANCH_DIRECT_JUMP: 445737 0.891474%
BRANCH_INDIRECT: 48875 0.09775%
BRANCH_CONDITIONAL: 5859377 11.7188%
BRANCH_DIRECT_CALL: 758262 1.51652%
BRANCH_INDIRECT_CALL: 159103 0.318206%
BRANCH_RETURN: 917369 1.83474%
BRANCH_OTHER: 0 0%

