Initialize SIGNATURE TABLE
ST_SET: 1
ST_WAY: 256
ST_TAG_BIT: 16
ST_TAG_MASK: ffff

Initialize PATTERN TABLE
PT_SET: 512
PT_WAY: 4
SIG_DELTA_BIT: 7
C_SIG_BIT: 4
C_DELTA_BIT: 4

Initialize PREFETCH FILTER
FILTER_SET: 1024

*** ChampSim Multicore Out-of-Order Simulator ***

Warmup Instructions: 50000000
Simulation Instructions: 50000000
Number of CPUs: 1
LLC sets: 2048
LLC ways: 16
Off-chip DRAM Size: 4096 MB Channels: 1 Width: 64-bit Data Rate: 3200 MT/s

CPU 0 runs /home/xubinfang/Desktop/ChampSim/dpc3_traces/server_037.champsimtrace.xz
CPU 0 Bimodal branch predictor
CPU 0 L1I next line prefetcher
CPU 0 L1D next line prefetcher
Heartbeat CPU 0 instructions: 10000001 cycles: 3322295 heartbeat IPC: 3.00997 cumulative IPC: 3.00997 (Simulation time: 0 hr 0 min 25 sec) 
Heartbeat CPU 0 instructions: 20000002 cycles: 6642185 heartbeat IPC: 3.01215 cumulative IPC: 3.01106 (Simulation time: 0 hr 0 min 50 sec) 
Heartbeat CPU 0 instructions: 30000003 cycles: 10009811 heartbeat IPC: 2.96945 cumulative IPC: 2.99706 (Simulation time: 0 hr 1 min 16 sec) 
Heartbeat CPU 0 instructions: 40000000 cycles: 13331561 heartbeat IPC: 3.01046 cumulative IPC: 3.0004 (Simulation time: 0 hr 1 min 41 sec) 
Heartbeat CPU 0 instructions: 50000003 cycles: 16652551 heartbeat IPC: 3.01115 cumulative IPC: 3.00254 (Simulation time: 0 hr 2 min 8 sec) 

Warmup complete CPU 0 instructions: 50000003 cycles: 16652551 (Simulation time: 0 hr 2 min 8 sec) 

Heartbeat CPU 0 instructions: 60000001 cycles: 26705776 heartbeat IPC: 0.994705 cumulative IPC: 0.994705 (Simulation time: 0 hr 2 min 29 sec) 
Heartbeat CPU 0 instructions: 70000000 cycles: 36858176 heartbeat IPC: 0.984989 cumulative IPC: 0.989823 (Simulation time: 0 hr 2 min 48 sec) 
Heartbeat CPU 0 instructions: 80000000 cycles: 46927266 heartbeat IPC: 0.993138 cumulative IPC: 0.990926 (Simulation time: 0 hr 3 min 7 sec) 
Heartbeat CPU 0 instructions: 90000002 cycles: 57012374 heartbeat IPC: 0.991561 cumulative IPC: 0.991085 (Simulation time: 0 hr 3 min 25 sec) 
*** Reached end of trace for Core: 0 Repeating trace: /home/xubinfang/Desktop/ChampSim/dpc3_traces/server_037.champsimtrace.xz
Heartbeat CPU 0 instructions: 100000000 cycles: 67132729 heartbeat IPC: 0.988107 cumulative IPC: 0.990488 (Simulation time: 0 hr 3 min 46 sec) 
Finished CPU 0 instructions: 50000001 cycles: 50480179 cumulative IPC: 0.990488 (Simulation time: 0 hr 3 min 46 sec) 

ChampSim completed all CPUs

Region of Interest Statistics

CPU 0 cumulative IPC: 0.990488 instructions: 50000001 cycles: 50480179
L1D TOTAL     ACCESS:   21611725  HIT:   20632462  MISS:     979263
L1D LOAD      ACCESS:    7746529  HIT:    7257307  MISS:     489222
L1D RFO       ACCESS:    6275056  HIT:    6208469  MISS:      66587
L1D PREFETCH  ACCESS:    7590140  HIT:    7166686  MISS:     423454
L1D WRITEBACK ACCESS:          0  HIT:          0  MISS:          0
L1D PREFETCH  REQUESTED:    7793620  ISSUED:    7704658  USEFUL:     117598  USELESS:     305861
L1D AVERAGE MISS LATENCY: 28.7717 cycles
L1I TOTAL     ACCESS:   11581458  HIT:    6606130  MISS:    4975328
L1I LOAD      ACCESS:    9487571  HIT:    6388720  MISS:    3098851
L1I RFO       ACCESS:          0  HIT:          0  MISS:          0
L1I PREFETCH  ACCESS:    2093887  HIT:     217410  MISS:    1876477
L1I WRITEBACK ACCESS:          0  HIT:          0  MISS:          0
L1I PREFETCH  REQUESTED:    3504042  ISSUED:    3504042  USEFUL:    1042044  USELESS:     834443
L1I AVERAGE MISS LATENCY: 13.3985 cycles
L2C TOTAL     ACCESS:    9560169  HIT:    9243178  MISS:     316991
L2C LOAD      ACCESS:    3315145  HIT:    3170843  MISS:     144302
L2C RFO       ACCESS:      66369  HIT:      38062  MISS:      28307
L2C PREFETCH  ACCESS:    5888358  HIT:    5744953  MISS:     143405
L2C WRITEBACK ACCESS:     290297  HIT:     289320  MISS:        977
L2C PREFETCH  REQUESTED:    7759629  ISSUED:    7754266  USEFUL:       7254  USELESS:     136156
L2C AVERAGE MISS LATENCY: 45.1408 cycles
LLC TOTAL     ACCESS:    1699983  HIT:    1641112  MISS:      58871
LLC LOAD      ACCESS:     144271  HIT:     131240  MISS:      13031
LLC RFO       ACCESS:      28307  HIT:      23738  MISS:       4569
LLC PREFETCH  ACCESS:    1386572  HIT:    1345858  MISS:      40714
LLC WRITEBACK ACCESS:     140833  HIT:     140276  MISS:        557
LLC PREFETCH  REQUESTED:          0  ISSUED:          0  USEFUL:       4198  USELESS:      34534
LLC AVERAGE MISS LATENCY: 163.988 cycles
Major fault: 0 Minor fault: 5655
CPU 0 L1I next line prefetcher final stats
CPU 0 L1D next line prefetcher final stats

DRAM Statistics
 CHANNEL 0
 RQ ROW_BUFFER_HIT:      10122  ROW_BUFFER_MISS:      48192
 DBUS_CONGESTED:      26127
 WQ ROW_BUFFER_HIT:       1457  ROW_BUFFER_MISS:      11358  FULL:          0

 AVG_CONGESTED_CYCLE: 5

CPU 0 Branch Prediction Accuracy: 96.3054% MPKI: 6.64902 Average ROB Occupancy at Mispredict: 32.8747

Branch types
NOT_BRANCH: 41001510 82.003%
BRANCH_DIRECT_JUMP: 541939 1.08388%
BRANCH_INDIRECT: 59716 0.119432%
BRANCH_CONDITIONAL: 5916835 11.8337%
BRANCH_DIRECT_CALL: 1005456 2.01091%
BRANCH_INDIRECT_CALL: 234433 0.468866%
BRANCH_RETURN: 1239864 2.47973%
BRANCH_OTHER: 0 0%

