Initialize SIGNATURE TABLE
ST_SET: 1
ST_WAY: 256
ST_TAG_BIT: 16
ST_TAG_MASK: ffff

Initialize PATTERN TABLE
PT_SET: 512
PT_WAY: 4
SIG_DELTA_BIT: 7
C_SIG_BIT: 4
C_DELTA_BIT: 4

Initialize PREFETCH FILTER
FILTER_SET: 1024

*** ChampSim Multicore Out-of-Order Simulator ***

Warmup Instructions: 50000000
Simulation Instructions: 50000000
Number of CPUs: 1
LLC sets: 2048
LLC ways: 16
Off-chip DRAM Size: 4096 MB Channels: 1 Width: 64-bit Data Rate: 3200 MT/s

CPU 0 runs /home/xubinfang/Desktop/ChampSim/dpc3_traces/server_018.champsimtrace.xz
CPU 0 Bimodal branch predictor
CPU 0 L1I next line prefetcher
CPU 0 L1D next line prefetcher
Heartbeat CPU 0 instructions: 10000003 cycles: 3618434 heartbeat IPC: 2.76363 cumulative IPC: 2.76363 (Simulation time: 0 hr 0 min 41 sec) 
Heartbeat CPU 0 instructions: 20000001 cycles: 7241934 heartbeat IPC: 2.75976 cumulative IPC: 2.76169 (Simulation time: 0 hr 1 min 21 sec) 
Heartbeat CPU 0 instructions: 30000003 cycles: 10718589 heartbeat IPC: 2.87633 cumulative IPC: 2.79888 (Simulation time: 0 hr 2 min 0 sec) 
Heartbeat CPU 0 instructions: 40000000 cycles: 14232319 heartbeat IPC: 2.84598 cumulative IPC: 2.8105 (Simulation time: 0 hr 2 min 40 sec) 
Heartbeat CPU 0 instructions: 50000003 cycles: 17851584 heartbeat IPC: 2.76299 cumulative IPC: 2.80087 (Simulation time: 0 hr 3 min 20 sec) 

Warmup complete CPU 0 instructions: 50000003 cycles: 17851584 (Simulation time: 0 hr 3 min 20 sec) 

Heartbeat CPU 0 instructions: 60000000 cycles: 37164841 heartbeat IPC: 0.517779 cumulative IPC: 0.517779 (Simulation time: 0 hr 4 min 8 sec) 
Heartbeat CPU 0 instructions: 70000001 cycles: 56588981 heartbeat IPC: 0.514823 cumulative IPC: 0.516297 (Simulation time: 0 hr 4 min 56 sec) 
Heartbeat CPU 0 instructions: 80000003 cycles: 75858975 heartbeat IPC: 0.518942 cumulative IPC: 0.517175 (Simulation time: 0 hr 5 min 43 sec) 
Heartbeat CPU 0 instructions: 90000000 cycles: 95204410 heartbeat IPC: 0.516918 cumulative IPC: 0.517111 (Simulation time: 0 hr 6 min 31 sec) 
Heartbeat CPU 0 instructions: 100000001 cycles: 114548191 heartbeat IPC: 0.516962 cumulative IPC: 0.517081 (Simulation time: 0 hr 7 min 20 sec) 
Finished CPU 0 instructions: 50000002 cycles: 96696608 cumulative IPC: 0.517081 (Simulation time: 0 hr 7 min 20 sec) 

ChampSim completed all CPUs

Region of Interest Statistics

CPU 0 cumulative IPC: 0.517081 instructions: 50000002 cycles: 96696608
L1D TOTAL     ACCESS:   20215376  HIT:   17998370  MISS:    2217006
L1D LOAD      ACCESS:    7806544  HIT:    7090705  MISS:     715839
L1D RFO       ACCESS:    5833366  HIT:    4880946  MISS:     952420
L1D PREFETCH  ACCESS:    6575466  HIT:    6026719  MISS:     548747
L1D WRITEBACK ACCESS:          0  HIT:          0  MISS:          0
L1D PREFETCH  REQUESTED:    7855285  ISSUED:    7691267  USEFUL:     208785  USELESS:     340049
L1D AVERAGE MISS LATENCY: 170.778 cycles
L1I TOTAL     ACCESS:   11045628  HIT:    7992676  MISS:    3052952
L1I LOAD      ACCESS:    9739212  HIT:    7812264  MISS:    1926948
L1I RFO       ACCESS:          0  HIT:          0  MISS:          0
L1I PREFETCH  ACCESS:    1306416  HIT:     180412  MISS:    1126004
L1I WRITEBACK ACCESS:          0  HIT:          0  MISS:          0
L1I PREFETCH  REQUESTED:    2221719  ISSUED:    2221719  USEFUL:     630814  USELESS:     495211
L1I AVERAGE MISS LATENCY: 16.1889 cycles
L2C TOTAL     ACCESS:    8184566  HIT:    6284639  MISS:    1899927
L2C LOAD      ACCESS:    2251749  HIT:    1904895  MISS:     346854
L2C RFO       ACCESS:     951913  HIT:      19744  MISS:     932169
L2C PREFETCH  ACCESS:    3810770  HIT:    3193874  MISS:     616896
L2C WRITEBACK ACCESS:    1170134  HIT:    1166126  MISS:       4008
L2C PREFETCH  REQUESTED:    4846966  ISSUED:    4843127  USEFUL:      34129  USELESS:     583499
L2C AVERAGE MISS LATENCY: 202.397 cycles
LLC TOTAL     ACCESS:    4037535  HIT:    2599784  MISS:    1437751
LLC LOAD      ACCESS:     346738  HIT:     238198  MISS:     108540
LLC RFO       ACCESS:     932080  HIT:     137935  MISS:     794145
LLC PREFETCH  ACCESS:    1655236  HIT:    1122544  MISS:     532692
LLC WRITEBACK ACCESS:    1103481  HIT:    1101107  MISS:       2374
LLC PREFETCH  REQUESTED:          0  ISSUED:          0  USEFUL:      34437  USELESS:     498517
LLC AVERAGE MISS LATENCY: 270.052 cycles
Major fault: 0 Minor fault: 22445
CPU 0 L1I next line prefetcher final stats
CPU 0 L1D next line prefetcher final stats

DRAM Statistics
 CHANNEL 0
 RQ ROW_BUFFER_HIT:     414382  ROW_BUFFER_MISS:    1020720
 DBUS_CONGESTED:    1423737
 WQ ROW_BUFFER_HIT:     247580  ROW_BUFFER_MISS:     648642  FULL:          0

 AVG_CONGESTED_CYCLE: 6

CPU 0 Branch Prediction Accuracy: 96.2915% MPKI: 6.1256 Average ROB Occupancy at Mispredict: 71.6877

Branch types
NOT_BRANCH: 41741008 83.482%
BRANCH_DIRECT_JUMP: 458652 0.917304%
BRANCH_INDIRECT: 48282 0.096564%
BRANCH_CONDITIONAL: 5930881 11.8618%
BRANCH_DIRECT_CALL: 744230 1.48846%
BRANCH_INDIRECT_CALL: 166336 0.332672%
BRANCH_RETURN: 910589 1.82118%
BRANCH_OTHER: 0 0%

