Initialize SIGNATURE TABLE
ST_SET: 1
ST_WAY: 256
ST_TAG_BIT: 16
ST_TAG_MASK: ffff

Initialize PATTERN TABLE
PT_SET: 512
PT_WAY: 4
SIG_DELTA_BIT: 7
C_SIG_BIT: 4
C_DELTA_BIT: 4

Initialize PREFETCH FILTER
FILTER_SET: 1024

*** ChampSim Multicore Out-of-Order Simulator ***

Warmup Instructions: 50000000
Simulation Instructions: 50000000
Number of CPUs: 1
LLC sets: 2048
LLC ways: 16
Off-chip DRAM Size: 4096 MB Channels: 1 Width: 64-bit Data Rate: 3200 MT/s

CPU 0 runs /home/xubinfang/Desktop/ChampSim/dpc3_traces/server_020.champsimtrace.xz
CPU 0 Bimodal branch predictor
CPU 0 L1I next line prefetcher
CPU 0 L1D next line prefetcher
Heartbeat CPU 0 instructions: 10000003 cycles: 3624137 heartbeat IPC: 2.75928 cumulative IPC: 2.75928 (Simulation time: 0 hr 0 min 40 sec) 
Heartbeat CPU 0 instructions: 20000002 cycles: 7252247 heartbeat IPC: 2.75626 cumulative IPC: 2.75777 (Simulation time: 0 hr 1 min 19 sec) 
Heartbeat CPU 0 instructions: 30000001 cycles: 10873737 heartbeat IPC: 2.76129 cumulative IPC: 2.75894 (Simulation time: 0 hr 1 min 54 sec) 
Heartbeat CPU 0 instructions: 40000002 cycles: 14496489 heartbeat IPC: 2.76033 cumulative IPC: 2.75929 (Simulation time: 0 hr 2 min 26 sec) 
Heartbeat CPU 0 instructions: 50000001 cycles: 18132728 heartbeat IPC: 2.75009 cumulative IPC: 2.75745 (Simulation time: 0 hr 3 min 0 sec) 

Warmup complete CPU 0 instructions: 50000001 cycles: 18132728 (Simulation time: 0 hr 3 min 0 sec) 

Heartbeat CPU 0 instructions: 60000000 cycles: 37556335 heartbeat IPC: 0.514837 cumulative IPC: 0.514837 (Simulation time: 0 hr 3 min 39 sec) 
Heartbeat CPU 0 instructions: 70000002 cycles: 56986228 heartbeat IPC: 0.514671 cumulative IPC: 0.514754 (Simulation time: 0 hr 4 min 20 sec) 
Heartbeat CPU 0 instructions: 80000002 cycles: 76314663 heartbeat IPC: 0.517372 cumulative IPC: 0.515624 (Simulation time: 0 hr 4 min 58 sec) 
Heartbeat CPU 0 instructions: 90000001 cycles: 95680408 heartbeat IPC: 0.516376 cumulative IPC: 0.515812 (Simulation time: 0 hr 5 min 38 sec) 
Heartbeat CPU 0 instructions: 100000002 cycles: 115017072 heartbeat IPC: 0.517152 cumulative IPC: 0.516079 (Simulation time: 0 hr 6 min 22 sec) 
Finished CPU 0 instructions: 50000001 cycles: 96884344 cumulative IPC: 0.516079 (Simulation time: 0 hr 6 min 22 sec) 

ChampSim completed all CPUs

Region of Interest Statistics

CPU 0 cumulative IPC: 0.516079 instructions: 50000001 cycles: 96884344
L1D TOTAL     ACCESS:   20218529  HIT:   18014580  MISS:    2203949
L1D LOAD      ACCESS:    7806798  HIT:    7096134  MISS:     710664
L1D RFO       ACCESS:    5831119  HIT:    4885034  MISS:     946085
L1D PREFETCH  ACCESS:    6580612  HIT:    6033412  MISS:     547200
L1D WRITEBACK ACCESS:          0  HIT:          0  MISS:          0
L1D PREFETCH  REQUESTED:    7854283  ISSUED:    7691548  USEFUL:     207631  USELESS:     339488
L1D AVERAGE MISS LATENCY: 170.427 cycles
L1I TOTAL     ACCESS:   11048424  HIT:    7990857  MISS:    3057567
L1I LOAD      ACCESS:    9739196  HIT:    7809622  MISS:    1929574
L1I RFO       ACCESS:          0  HIT:          0  MISS:          0
L1I PREFETCH  ACCESS:    1309228  HIT:     181235  MISS:    1127993
L1I WRITEBACK ACCESS:          0  HIT:          0  MISS:          0
L1I PREFETCH  REQUESTED:    2228523  ISSUED:    2228523  USEFUL:     631782  USELESS:     496216
L1I AVERAGE MISS LATENCY: 16.4574 cycles
L2C TOTAL     ACCESS:    8137811  HIT:    6247059  MISS:    1890752
L2C LOAD      ACCESS:    2248684  HIT:    1901513  MISS:     347171
L2C RFO       ACCESS:     945698  HIT:      19895  MISS:     925803
L2C PREFETCH  ACCESS:    3779760  HIT:    3164006  MISS:     615754
L2C WRITEBACK ACCESS:    1163669  HIT:    1161645  MISS:       2024
L2C PREFETCH  REQUESTED:    4798902  ISSUED:    4795554  USEFUL:      35131  USELESS:     579977
L2C AVERAGE MISS LATENCY: 202.404 cycles
LLC TOTAL     ACCESS:    4030187  HIT:    2572153  MISS:    1458034
LLC LOAD      ACCESS:     347042  HIT:     229811  MISS:     117231
LLC RFO       ACCESS:     925646  HIT:     139792  MISS:     785854
LLC PREFETCH  ACCESS:    1658428  HIT:    1105483  MISS:     552945
LLC WRITEBACK ACCESS:    1099071  HIT:    1097067  MISS:       2004
LLC PREFETCH  REQUESTED:          0  ISSUED:          0  USEFUL:      38407  USELESS:     514687
LLC AVERAGE MISS LATENCY: 266.614 cycles
Major fault: 0 Minor fault: 22093
CPU 0 L1I next line prefetcher final stats
CPU 0 L1D next line prefetcher final stats

DRAM Statistics
 CHANNEL 0
 RQ ROW_BUFFER_HIT:     417257  ROW_BUFFER_MISS:    1038479
 DBUS_CONGESTED:    1431163
 WQ ROW_BUFFER_HIT:     243980  ROW_BUFFER_MISS:     647753  FULL:          0

 AVG_CONGESTED_CYCLE: 6

CPU 0 Branch Prediction Accuracy: 96.3206% MPKI: 6.08594 Average ROB Occupancy at Mispredict: 72.144

Branch types
NOT_BRANCH: 41729389 83.4588%
BRANCH_DIRECT_JUMP: 458219 0.916438%
BRANCH_INDIRECT: 49088 0.098176%
BRANCH_CONDITIONAL: 5938510 11.877%
BRANCH_DIRECT_CALL: 745129 1.49026%
BRANCH_INDIRECT_CALL: 167106 0.334212%
BRANCH_RETURN: 912219 1.82444%
BRANCH_OTHER: 0 0%

