Initialize SIGNATURE TABLE
ST_SET: 1
ST_WAY: 256
ST_TAG_BIT: 16
ST_TAG_MASK: ffff

Initialize PATTERN TABLE
PT_SET: 512
PT_WAY: 4
SIG_DELTA_BIT: 7
C_SIG_BIT: 4
C_DELTA_BIT: 4

Initialize PREFETCH FILTER
FILTER_SET: 1024

*** ChampSim Multicore Out-of-Order Simulator ***

Warmup Instructions: 50000000
Simulation Instructions: 50000000
Number of CPUs: 1
LLC sets: 2048
LLC ways: 16
Off-chip DRAM Size: 4096 MB Channels: 1 Width: 64-bit Data Rate: 3200 MT/s

CPU 0 runs /home/xubinfang/Desktop/ChampSim/dpc3_traces/server_017.champsimtrace.xz
CPU 0 Bimodal branch predictor
CPU 0 L1I next line prefetcher
CPU 0 L1D next line prefetcher
Heartbeat CPU 0 instructions: 10000001 cycles: 3625038 heartbeat IPC: 2.75859 cumulative IPC: 2.75859 (Simulation time: 0 hr 0 min 39 sec) 
Heartbeat CPU 0 instructions: 20000000 cycles: 7247898 heartbeat IPC: 2.76025 cumulative IPC: 2.75942 (Simulation time: 0 hr 1 min 19 sec) 
Heartbeat CPU 0 instructions: 30000002 cycles: 10877226 heartbeat IPC: 2.75533 cumulative IPC: 2.75806 (Simulation time: 0 hr 1 min 58 sec) 
Heartbeat CPU 0 instructions: 40000000 cycles: 14502025 heartbeat IPC: 2.75877 cumulative IPC: 2.75824 (Simulation time: 0 hr 2 min 38 sec) 
Heartbeat CPU 0 instructions: 50000001 cycles: 18137536 heartbeat IPC: 2.75065 cumulative IPC: 2.75671 (Simulation time: 0 hr 3 min 17 sec) 

Warmup complete CPU 0 instructions: 50000001 cycles: 18137536 (Simulation time: 0 hr 3 min 17 sec) 

Heartbeat CPU 0 instructions: 60000002 cycles: 37536091 heartbeat IPC: 0.515502 cumulative IPC: 0.515502 (Simulation time: 0 hr 4 min 4 sec) 
Heartbeat CPU 0 instructions: 70000000 cycles: 57059705 heartbeat IPC: 0.5122 cumulative IPC: 0.513846 (Simulation time: 0 hr 4 min 52 sec) 
Heartbeat CPU 0 instructions: 80000000 cycles: 76338090 heartbeat IPC: 0.518716 cumulative IPC: 0.515459 (Simulation time: 0 hr 5 min 38 sec) 
Heartbeat CPU 0 instructions: 90000002 cycles: 100625095 heartbeat IPC: 0.411743 cumulative IPC: 0.484922 (Simulation time: 0 hr 6 min 26 sec) 
Heartbeat CPU 0 instructions: 100000003 cycles: 122158332 heartbeat IPC: 0.464398 cumulative IPC: 0.480673 (Simulation time: 0 hr 7 min 13 sec) 
Finished CPU 0 instructions: 50000002 cycles: 104020796 cumulative IPC: 0.480673 (Simulation time: 0 hr 7 min 13 sec) 

ChampSim completed all CPUs

Region of Interest Statistics

CPU 0 cumulative IPC: 0.480673 instructions: 50000002 cycles: 104020796
L1D TOTAL     ACCESS:   19834625  HIT:   17669213  MISS:    2165412
L1D LOAD      ACCESS:    7722014  HIT:    6985715  MISS:     736299
L1D RFO       ACCESS:    5536783  HIT:    4677483  MISS:     859300
L1D PREFETCH  ACCESS:    6575828  HIT:    6006015  MISS:     569813
L1D WRITEBACK ACCESS:          0  HIT:          0  MISS:          0
L1D PREFETCH  REQUESTED:    7765048  ISSUED:    7609999  USEFUL:     207056  USELESS:     362819
L1D AVERAGE MISS LATENCY: 170.381 cycles
L1I TOTAL     ACCESS:   10735889  HIT:    7977174  MISS:    2758715
L1I LOAD      ACCESS:    9554786  HIT:    7813534  MISS:    1741252
L1I RFO       ACCESS:          0  HIT:          0  MISS:          0
L1I PREFETCH  ACCESS:    1181103  HIT:     163640  MISS:    1017463
L1I WRITEBACK ACCESS:          0  HIT:          0  MISS:          0
L1I PREFETCH  REQUESTED:    2008759  ISSUED:    2008759  USEFUL:     570013  USELESS:     447468
L1I AVERAGE MISS LATENCY: 16.4219 cycles
L2C TOTAL     ACCESS:    7628138  HIT:    5753837  MISS:    1874301
L2C LOAD      ACCESS:    2123574  HIT:    1723358  MISS:     400216
L2C RFO       ACCESS:     858861  HIT:      16996  MISS:     841865
L2C PREFETCH  ACCESS:    3522793  HIT:    2893159  MISS:     629634
L2C WRITEBACK ACCESS:    1122910  HIT:    1120324  MISS:       2586
L2C PREFETCH  REQUESTED:    4591372  ISSUED:    4587994  USEFUL:      32695  USELESS:     597242
L2C AVERAGE MISS LATENCY: 198.709 cycles
LLC TOTAL     ACCESS:    4037542  HIT:    2502698  MISS:    1534844
LLC LOAD      ACCESS:     400073  HIT:     231514  MISS:     168559
LLC RFO       ACCESS:     841765  HIT:     124079  MISS:     717686
LLC PREFETCH  ACCESS:    1731892  HIT:    1085457  MISS:     646435
LLC WRITEBACK ACCESS:    1063812  HIT:    1061648  MISS:       2164
LLC PREFETCH  REQUESTED:          0  ISSUED:          0  USEFUL:      54185  USELESS:     591631
LLC AVERAGE MISS LATENCY: 255.062 cycles
Major fault: 0 Minor fault: 24696
CPU 0 L1I next line prefetcher final stats
CPU 0 L1D next line prefetcher final stats

DRAM Statistics
 CHANNEL 0
 RQ ROW_BUFFER_HIT:     383150  ROW_BUFFER_MISS:    1149361
 DBUS_CONGESTED:    1460903
 WQ ROW_BUFFER_HIT:     242181  ROW_BUFFER_MISS:     637905  FULL:          0

 AVG_CONGESTED_CYCLE: 6

CPU 0 Branch Prediction Accuracy: 95.5743% MPKI: 7.4454 Average ROB Occupancy at Mispredict: 78.8809

Branch types
NOT_BRANCH: 41588235 83.1765%
BRANCH_DIRECT_JUMP: 464500 0.929%
BRANCH_INDIRECT: 45704 0.091408%
BRANCH_CONDITIONAL: 6147387 12.2948%
BRANCH_DIRECT_CALL: 675448 1.3509%
BRANCH_INDIRECT_CALL: 201532 0.403064%
BRANCH_RETURN: 876983 1.75397%
BRANCH_OTHER: 0 0%

