Initialize SIGNATURE TABLE
ST_SET: 1
ST_WAY: 256
ST_TAG_BIT: 16
ST_TAG_MASK: ffff

Initialize PATTERN TABLE
PT_SET: 512
PT_WAY: 4
SIG_DELTA_BIT: 7
C_SIG_BIT: 4
C_DELTA_BIT: 4

Initialize PREFETCH FILTER
FILTER_SET: 1024

*** ChampSim Multicore Out-of-Order Simulator ***

Warmup Instructions: 50000000
Simulation Instructions: 50000000
Number of CPUs: 1
LLC sets: 2048
LLC ways: 16
Off-chip DRAM Size: 4096 MB Channels: 1 Width: 64-bit Data Rate: 3200 MT/s

CPU 0 runs /home/xubinfang/Desktop/ChampSim/dpc3_traces/server_004.champsimtrace.xz
CPU 0 Bimodal branch predictor
CPU 0 L1I next line prefetcher
CPU 0 L1D next line prefetcher
Heartbeat CPU 0 instructions: 10000002 cycles: 3224535 heartbeat IPC: 3.10122 cumulative IPC: 3.10122 (Simulation time: 0 hr 0 min 30 sec) 
Heartbeat CPU 0 instructions: 20000002 cycles: 6556955 heartbeat IPC: 3.00082 cumulative IPC: 3.0502 (Simulation time: 0 hr 1 min 1 sec) 
Heartbeat CPU 0 instructions: 30000000 cycles: 11673831 heartbeat IPC: 1.95432 cumulative IPC: 2.56985 (Simulation time: 0 hr 1 min 37 sec) 
Heartbeat CPU 0 instructions: 40000003 cycles: 15418535 heartbeat IPC: 2.67044 cumulative IPC: 2.59428 (Simulation time: 0 hr 2 min 8 sec) 
Heartbeat CPU 0 instructions: 50000003 cycles: 18642030 heartbeat IPC: 3.10222 cumulative IPC: 2.68211 (Simulation time: 0 hr 2 min 41 sec) 

Warmup complete CPU 0 instructions: 50000003 cycles: 18642030 (Simulation time: 0 hr 2 min 41 sec) 

Heartbeat CPU 0 instructions: 60000000 cycles: 31040477 heartbeat IPC: 0.806552 cumulative IPC: 0.806552 (Simulation time: 0 hr 3 min 8 sec) 
Heartbeat CPU 0 instructions: 70000000 cycles: 43143387 heartbeat IPC: 0.826248 cumulative IPC: 0.816281 (Simulation time: 0 hr 3 min 32 sec) 
Heartbeat CPU 0 instructions: 80000001 cycles: 65840356 heartbeat IPC: 0.440588 cumulative IPC: 0.635616 (Simulation time: 0 hr 4 min 9 sec) 
Heartbeat CPU 0 instructions: 90000002 cycles: 81644883 heartbeat IPC: 0.63273 cumulative IPC: 0.634892 (Simulation time: 0 hr 4 min 44 sec) 
Heartbeat CPU 0 instructions: 100000003 cycles: 93873990 heartbeat IPC: 0.817721 cumulative IPC: 0.664611 (Simulation time: 0 hr 5 min 18 sec) 
Finished CPU 0 instructions: 50000000 cycles: 75231960 cumulative IPC: 0.664611 (Simulation time: 0 hr 5 min 18 sec) 

ChampSim completed all CPUs

Region of Interest Statistics

CPU 0 cumulative IPC: 0.664611 instructions: 50000000 cycles: 75231960
L1D TOTAL     ACCESS:   22702432  HIT:   18630289  MISS:    4072143
L1D LOAD      ACCESS:    9104738  HIT:    7094492  MISS:    2010246
L1D RFO       ACCESS:    4690503  HIT:    4583371  MISS:     107132
L1D PREFETCH  ACCESS:    8907191  HIT:    6952426  MISS:    1954765
L1D WRITEBACK ACCESS:          0  HIT:          0  MISS:          0
L1D PREFETCH  REQUESTED:    9141324  ISSUED:    9049215  USEFUL:     114320  USELESS:    1840442
L1D AVERAGE MISS LATENCY: 22.6389 cycles
L1I TOTAL     ACCESS:   10356555  HIT:    9086233  MISS:    1270322
L1I LOAD      ACCESS:    9855210  HIT:    9017900  MISS:     837310
L1I RFO       ACCESS:          0  HIT:          0  MISS:          0
L1I PREFETCH  ACCESS:     501345  HIT:      68333  MISS:     433012
L1I WRITEBACK ACCESS:          0  HIT:          0  MISS:          0
L1I PREFETCH  REQUESTED:    1063796  ISSUED:    1063796  USEFUL:     234888  USELESS:     198081
L1I AVERAGE MISS LATENCY: 29.5282 cycles
L2C TOTAL     ACCESS:    7044990  HIT:    5942915  MISS:    1102075
L2C LOAD      ACCESS:    2644048  HIT:    2184851  MISS:     459197
L2C RFO       ACCESS:     105877  HIT:      57264  MISS:      48613
L2C PREFETCH  ACCESS:    4049997  HIT:    3456763  MISS:     593234
L2C WRITEBACK ACCESS:     245068  HIT:     244037  MISS:       1031
L2C PREFETCH  REQUESTED:    6514680  ISSUED:    6514559  USEFUL:      50727  USELESS:     542319
L2C AVERAGE MISS LATENCY: 54.0919 cycles
LLC TOTAL     ACCESS:    2397086  HIT:    2151067  MISS:     246019
LLC LOAD      ACCESS:     458368  HIT:     402607  MISS:      55761
LLC RFO       ACCESS:      48612  HIT:      33700  MISS:      14912
LLC PREFETCH  ACCESS:    1749040  HIT:    1574063  MISS:     174977
LLC WRITEBACK ACCESS:     141066  HIT:     140697  MISS:        369
LLC PREFETCH  REQUESTED:          0  ISSUED:          0  USEFUL:      25990  USELESS:     147399
LLC AVERAGE MISS LATENCY: 166.11 cycles
Major fault: 0 Minor fault: 7596
CPU 0 L1I next line prefetcher final stats
CPU 0 L1D next line prefetcher final stats

DRAM Statistics
 CHANNEL 0
 RQ ROW_BUFFER_HIT:      51519  ROW_BUFFER_MISS:     194118
 DBUS_CONGESTED:      98623
 WQ ROW_BUFFER_HIT:      11351  ROW_BUFFER_MISS:      44249  FULL:          0

 AVG_CONGESTED_CYCLE: 5

CPU 0 Branch Prediction Accuracy: 93.5768% MPKI: 13.5863 Average ROB Occupancy at Mispredict: 45.1625

Branch types
NOT_BRANCH: 39423774 78.8475%
BRANCH_DIRECT_JUMP: 551642 1.10328%
BRANCH_INDIRECT: 139368 0.278736%
BRANCH_CONDITIONAL: 7920862 15.8417%
BRANCH_DIRECT_CALL: 776072 1.55214%
BRANCH_INDIRECT_CALL: 194644 0.389288%
BRANCH_RETURN: 993311 1.98662%
BRANCH_OTHER: 0 0%

