Initialize SIGNATURE TABLE
ST_SET: 1
ST_WAY: 256
ST_TAG_BIT: 16
ST_TAG_MASK: ffff

Initialize PATTERN TABLE
PT_SET: 512
PT_WAY: 4
SIG_DELTA_BIT: 7
C_SIG_BIT: 4
C_DELTA_BIT: 4

Initialize PREFETCH FILTER
FILTER_SET: 1024

*** ChampSim Multicore Out-of-Order Simulator ***

Warmup Instructions: 50000000
Simulation Instructions: 50000000
Number of CPUs: 1
LLC sets: 2048
LLC ways: 16
Off-chip DRAM Size: 4096 MB Channels: 1 Width: 64-bit Data Rate: 3200 MT/s

CPU 0 runs /home/xubinfang/Desktop/ChampSim/dpc3_traces/server_033.champsimtrace.xz
CPU 0 Bimodal branch predictor
CPU 0 L1I next line prefetcher
CPU 0 L1D next line prefetcher
Heartbeat CPU 0 instructions: 10000001 cycles: 3344133 heartbeat IPC: 2.99031 cumulative IPC: 2.99031 (Simulation time: 0 hr 0 min 24 sec) 
Heartbeat CPU 0 instructions: 20000003 cycles: 6686511 heartbeat IPC: 2.99188 cumulative IPC: 2.9911 (Simulation time: 0 hr 0 min 49 sec) 
Heartbeat CPU 0 instructions: 30000001 cycles: 10018943 heartbeat IPC: 3.00081 cumulative IPC: 2.99433 (Simulation time: 0 hr 1 min 12 sec) 
Heartbeat CPU 0 instructions: 40000000 cycles: 13360343 heartbeat IPC: 2.99276 cumulative IPC: 2.99394 (Simulation time: 0 hr 1 min 36 sec) 
Heartbeat CPU 0 instructions: 50000000 cycles: 16701099 heartbeat IPC: 2.99333 cumulative IPC: 2.99381 (Simulation time: 0 hr 2 min 0 sec) 

Warmup complete CPU 0 instructions: 50000004 cycles: 16701100 (Simulation time: 0 hr 2 min 0 sec) 

Heartbeat CPU 0 instructions: 60000000 cycles: 27119901 heartbeat IPC: 0.959803 cumulative IPC: 0.959803 (Simulation time: 0 hr 2 min 21 sec) 
Heartbeat CPU 0 instructions: 70000000 cycles: 37468882 heartbeat IPC: 0.966279 cumulative IPC: 0.96303 (Simulation time: 0 hr 2 min 43 sec) 
Heartbeat CPU 0 instructions: 80000000 cycles: 48465603 heartbeat IPC: 0.909362 cumulative IPC: 0.94445 (Simulation time: 0 hr 3 min 6 sec) 
Heartbeat CPU 0 instructions: 90000001 cycles: 58821330 heartbeat IPC: 0.965649 cumulative IPC: 0.949662 (Simulation time: 0 hr 3 min 26 sec) 
Heartbeat CPU 0 instructions: 100000000 cycles: 69168461 heartbeat IPC: 0.966451 cumulative IPC: 0.952973 (Simulation time: 0 hr 3 min 46 sec) 
Finished CPU 0 instructions: 50000000 cycles: 52467368 cumulative IPC: 0.952973 (Simulation time: 0 hr 3 min 46 sec) 

ChampSim completed all CPUs

Region of Interest Statistics

CPU 0 cumulative IPC: 0.952973 instructions: 50000000 cycles: 52467368
L1D TOTAL     ACCESS:   20924082  HIT:   19440194  MISS:    1483888
L1D LOAD      ACCESS:    7427744  HIT:    6756802  MISS:     670942
L1D RFO       ACCESS:    6244716  HIT:    6092039  MISS:     152677
L1D PREFETCH  ACCESS:    7251622  HIT:    6591353  MISS:     660269
L1D WRITEBACK ACCESS:          0  HIT:          0  MISS:          0
L1D PREFETCH  REQUESTED:    7476614  ISSUED:    7376726  USEFUL:     150687  USELESS:     509586
L1D AVERAGE MISS LATENCY: 24.1009 cycles
L1I TOTAL     ACCESS:   11420634  HIT:    7330230  MISS:    4090404
L1I LOAD      ACCESS:    9661767  HIT:    7149710  MISS:    2512057
L1I RFO       ACCESS:          0  HIT:          0  MISS:          0
L1I PREFETCH  ACCESS:    1758867  HIT:     180520  MISS:    1578347
L1I WRITEBACK ACCESS:          0  HIT:          0  MISS:          0
L1I PREFETCH  REQUESTED:    2913671  ISSUED:    2913671  USEFUL:     862978  USELESS:     715362
L1I AVERAGE MISS LATENCY: 14.1679 cycles
L2C TOTAL     ACCESS:    8594181  HIT:    8248411  MISS:     345770
L2C LOAD      ACCESS:    3022871  HIT:    2860466  MISS:     162405
L2C RFO       ACCESS:     152508  HIT:     128231  MISS:      24277
L2C PREFETCH  ACCESS:    5051696  HIT:    4895643  MISS:     156053
L2C WRITEBACK ACCESS:     367106  HIT:     364071  MISS:       3035
L2C PREFETCH  REQUESTED:    7397023  ISSUED:    7388450  USEFUL:      12374  USELESS:     143686
L2C AVERAGE MISS LATENCY: 49.0336 cycles
LLC TOTAL     ACCESS:    2288279  HIT:    2213039  MISS:      75240
LLC LOAD      ACCESS:     161978  HIT:     144769  MISS:      17209
LLC RFO       ACCESS:      24276  HIT:      21355  MISS:       2921
LLC PREFETCH  ACCESS:    1990282  HIT:    1935547  MISS:      54735
LLC WRITEBACK ACCESS:     111743  HIT:     111368  MISS:        375
LLC PREFETCH  REQUESTED:          0  ISSUED:          0  USEFUL:       9527  USELESS:      43664
LLC AVERAGE MISS LATENCY: 168.349 cycles
Major fault: 0 Minor fault: 2485
CPU 0 L1I next line prefetcher final stats
CPU 0 L1D next line prefetcher final stats

DRAM Statistics
 CHANNEL 0
 RQ ROW_BUFFER_HIT:      12052  ROW_BUFFER_MISS:      62802
 DBUS_CONGESTED:      31996
 WQ ROW_BUFFER_HIT:       3842  ROW_BUFFER_MISS:      20651  FULL:          0

 AVG_CONGESTED_CYCLE: 5

CPU 0 Branch Prediction Accuracy: 93.3376% MPKI: 13.035 Average ROB Occupancy at Mispredict: 30.7239

Branch types
NOT_BRANCH: 40217072 80.4341%
BRANCH_DIRECT_JUMP: 774599 1.5492%
BRANCH_INDIRECT: 108806 0.217612%
BRANCH_CONDITIONAL: 6379325 12.7586%
BRANCH_DIRECT_CALL: 1048808 2.09762%
BRANCH_INDIRECT_CALL: 211109 0.422218%
BRANCH_RETURN: 1259924 2.51985%
BRANCH_OTHER: 0 0%

