Initialize SIGNATURE TABLE
ST_SET: 1
ST_WAY: 256
ST_TAG_BIT: 16
ST_TAG_MASK: ffff

Initialize PATTERN TABLE
PT_SET: 512
PT_WAY: 4
SIG_DELTA_BIT: 7
C_SIG_BIT: 4
C_DELTA_BIT: 4

Initialize PREFETCH FILTER
FILTER_SET: 1024

*** ChampSim Multicore Out-of-Order Simulator ***

Warmup Instructions: 50000000
Simulation Instructions: 50000000
Number of CPUs: 1
LLC sets: 2048
LLC ways: 16
Off-chip DRAM Size: 4096 MB Channels: 1 Width: 64-bit Data Rate: 3200 MT/s

CPU 0 runs /home/xubinfang/Desktop/ChampSim/dpc3_traces/server_029.champsimtrace.xz
CPU 0 Bimodal branch predictor
CPU 0 L1I next line prefetcher
CPU 0 L1D next line prefetcher
Heartbeat CPU 0 instructions: 10000001 cycles: 3491557 heartbeat IPC: 2.86405 cumulative IPC: 2.86405 (Simulation time: 0 hr 0 min 25 sec) 
Heartbeat CPU 0 instructions: 20000002 cycles: 6982933 heartbeat IPC: 2.8642 cumulative IPC: 2.86413 (Simulation time: 0 hr 0 min 49 sec) 
Heartbeat CPU 0 instructions: 30000003 cycles: 10476050 heartbeat IPC: 2.86277 cumulative IPC: 2.86368 (Simulation time: 0 hr 1 min 13 sec) 
Heartbeat CPU 0 instructions: 40000002 cycles: 13975648 heartbeat IPC: 2.85747 cumulative IPC: 2.86212 (Simulation time: 0 hr 1 min 38 sec) 
Heartbeat CPU 0 instructions: 50000000 cycles: 17474581 heartbeat IPC: 2.85801 cumulative IPC: 2.8613 (Simulation time: 0 hr 2 min 5 sec) 

Warmup complete CPU 0 instructions: 50000004 cycles: 17474582 (Simulation time: 0 hr 2 min 5 sec) 

Heartbeat CPU 0 instructions: 60000000 cycles: 29640133 heartbeat IPC: 0.821993 cumulative IPC: 0.821993 (Simulation time: 0 hr 2 min 26 sec) 
Heartbeat CPU 0 instructions: 70000000 cycles: 41974169 heartbeat IPC: 0.810765 cumulative IPC: 0.81634 (Simulation time: 0 hr 2 min 49 sec) 
Heartbeat CPU 0 instructions: 80000002 cycles: 54151386 heartbeat IPC: 0.821206 cumulative IPC: 0.817956 (Simulation time: 0 hr 3 min 9 sec) 
*** Reached end of trace for Core: 0 Repeating trace: /home/xubinfang/Desktop/ChampSim/dpc3_traces/server_029.champsimtrace.xz
Heartbeat CPU 0 instructions: 90000000 cycles: 66230104 heartbeat IPC: 0.827902 cumulative IPC: 0.82042 (Simulation time: 0 hr 3 min 32 sec) 
Heartbeat CPU 0 instructions: 100000000 cycles: 78323736 heartbeat IPC: 0.826881 cumulative IPC: 0.821704 (Simulation time: 0 hr 3 min 55 sec) 
Finished CPU 0 instructions: 50000000 cycles: 60849155 cumulative IPC: 0.821704 (Simulation time: 0 hr 3 min 55 sec) 

ChampSim completed all CPUs

Region of Interest Statistics

CPU 0 cumulative IPC: 0.821704 instructions: 50000000 cycles: 60849155
L1D TOTAL     ACCESS:   22025581  HIT:   19926241  MISS:    2099340
L1D LOAD      ACCESS:    8147425  HIT:    7099511  MISS:    1047914
L1D RFO       ACCESS:    6202698  HIT:    5915817  MISS:     286881
L1D PREFETCH  ACCESS:    7675458  HIT:    6910913  MISS:     764545
L1D WRITEBACK ACCESS:          0  HIT:          0  MISS:          0
L1D PREFETCH  REQUESTED:    8220076  ISSUED:    8145453  USEFUL:     192951  USELESS:     571587
L1D AVERAGE MISS LATENCY: 22.2766 cycles
L1I TOTAL     ACCESS:   11191002  HIT:    7575587  MISS:    3615415
L1I LOAD      ACCESS:    9643708  HIT:    7395337  MISS:    2248371
L1I RFO       ACCESS:          0  HIT:          0  MISS:          0
L1I PREFETCH  ACCESS:    1547294  HIT:     180250  MISS:    1367044
L1I WRITEBACK ACCESS:          0  HIT:          0  MISS:          0
L1I PREFETCH  REQUESTED:    2607923  ISSUED:    2607923  USEFUL:     729524  USELESS:     637513
L1I AVERAGE MISS LATENCY: 17.8672 cycles
L2C TOTAL     ACCESS:    8492919  HIT:    7439349  MISS:    1053570
L2C LOAD      ACCESS:    2923026  HIT:    2442989  MISS:     480037
L2C RFO       ACCESS:     283918  HIT:     201028  MISS:      82890
L2C PREFETCH  ACCESS:    4674854  HIT:    4187046  MISS:     487808
L2C WRITEBACK ACCESS:     611121  HIT:     608286  MISS:       2835
L2C PREFETCH  REQUESTED:    6934461  ISSUED:    6930958  USEFUL:      29854  USELESS:     458098
L2C AVERAGE MISS LATENCY: 38.5334 cycles
LLC TOTAL     ACCESS:    2892894  HIT:    2818713  MISS:      74181
LLC LOAD      ACCESS:     479613  HIT:     461581  MISS:      18032
LLC RFO       ACCESS:      82890  HIT:      79246  MISS:       3644
LLC PREFETCH  ACCESS:    2185427  HIT:    2133385  MISS:      52042
LLC WRITEBACK ACCESS:     144964  HIT:     144501  MISS:        463
LLC PREFETCH  REQUESTED:          0  ISSUED:          0  USEFUL:       2727  USELESS:      49321
LLC AVERAGE MISS LATENCY: 156.188 cycles
Major fault: 0 Minor fault: 5925
CPU 0 L1I next line prefetcher final stats
CPU 0 L1D next line prefetcher final stats

DRAM Statistics
 CHANNEL 0
 RQ ROW_BUFFER_HIT:      22283  ROW_BUFFER_MISS:      51427
 DBUS_CONGESTED:      30229
 WQ ROW_BUFFER_HIT:        523  ROW_BUFFER_MISS:       4141  FULL:          0

 AVG_CONGESTED_CYCLE: 4

CPU 0 Branch Prediction Accuracy: 92.2007% MPKI: 14.6831 Average ROB Occupancy at Mispredict: 32.1235

Branch types
NOT_BRANCH: 40586525 81.1731%
BRANCH_DIRECT_JUMP: 525208 1.05042%
BRANCH_INDIRECT: 166358 0.332716%
BRANCH_CONDITIONAL: 6373077 12.7462%
BRANCH_DIRECT_CALL: 989261 1.97852%
BRANCH_INDIRECT_CALL: 184984 0.369968%
BRANCH_RETURN: 1174249 2.3485%
BRANCH_OTHER: 0 0%

