Initialize SIGNATURE TABLE
ST_SET: 1
ST_WAY: 256
ST_TAG_BIT: 16
ST_TAG_MASK: ffff

Initialize PATTERN TABLE
PT_SET: 512
PT_WAY: 4
SIG_DELTA_BIT: 7
C_SIG_BIT: 4
C_DELTA_BIT: 4

Initialize PREFETCH FILTER
FILTER_SET: 1024

*** ChampSim Multicore Out-of-Order Simulator ***

Warmup Instructions: 50000000
Simulation Instructions: 50000000
Number of CPUs: 1
LLC sets: 2048
LLC ways: 16
Off-chip DRAM Size: 4096 MB Channels: 1 Width: 64-bit Data Rate: 3200 MT/s

CPU 0 runs /home/xubinfang/Desktop/ChampSim/dpc3_traces/server_030.champsimtrace.xz
CPU 0 Bimodal branch predictor
CPU 0 L1I next line prefetcher
CPU 0 L1D next line prefetcher
Heartbeat CPU 0 instructions: 10000003 cycles: 3509511 heartbeat IPC: 2.8494 cumulative IPC: 2.8494 (Simulation time: 0 hr 0 min 28 sec) 
Heartbeat CPU 0 instructions: 20000003 cycles: 7018727 heartbeat IPC: 2.84964 cumulative IPC: 2.84952 (Simulation time: 0 hr 0 min 52 sec) 
Heartbeat CPU 0 instructions: 30000000 cycles: 10526951 heartbeat IPC: 2.85044 cumulative IPC: 2.84983 (Simulation time: 0 hr 1 min 16 sec) 
Heartbeat CPU 0 instructions: 40000002 cycles: 14035346 heartbeat IPC: 2.85031 cumulative IPC: 2.84995 (Simulation time: 0 hr 1 min 40 sec) 
Heartbeat CPU 0 instructions: 50000002 cycles: 17546630 heartbeat IPC: 2.84796 cumulative IPC: 2.84955 (Simulation time: 0 hr 2 min 6 sec) 

Warmup complete CPU 0 instructions: 50000002 cycles: 17546630 (Simulation time: 0 hr 2 min 6 sec) 

Heartbeat CPU 0 instructions: 60000000 cycles: 29696196 heartbeat IPC: 0.823075 cumulative IPC: 0.823075 (Simulation time: 0 hr 2 min 26 sec) 
Heartbeat CPU 0 instructions: 70000000 cycles: 41850246 heartbeat IPC: 0.822771 cumulative IPC: 0.822923 (Simulation time: 0 hr 2 min 46 sec) 
Heartbeat CPU 0 instructions: 80000001 cycles: 53988584 heartbeat IPC: 0.823836 cumulative IPC: 0.823227 (Simulation time: 0 hr 3 min 6 sec) 
*** Reached end of trace for Core: 0 Repeating trace: /home/xubinfang/Desktop/ChampSim/dpc3_traces/server_030.champsimtrace.xz
Heartbeat CPU 0 instructions: 90000002 cycles: 66151592 heartbeat IPC: 0.822165 cumulative IPC: 0.822961 (Simulation time: 0 hr 3 min 27 sec) 
Heartbeat CPU 0 instructions: 100000000 cycles: 78329182 heartbeat IPC: 0.82118 cumulative IPC: 0.822604 (Simulation time: 0 hr 3 min 47 sec) 
Finished CPU 0 instructions: 50000002 cycles: 60782553 cumulative IPC: 0.822604 (Simulation time: 0 hr 3 min 47 sec) 

ChampSim completed all CPUs

Region of Interest Statistics

CPU 0 cumulative IPC: 0.822604 instructions: 50000002 cycles: 60782553
L1D TOTAL     ACCESS:   22201538  HIT:   20121402  MISS:    2080136
L1D LOAD      ACCESS:    8220216  HIT:    7182136  MISS:    1038080
L1D RFO       ACCESS:    6263334  HIT:    5976968  MISS:     286366
L1D PREFETCH  ACCESS:    7717988  HIT:    6962298  MISS:     755690
L1D WRITEBACK ACCESS:          0  HIT:          0  MISS:          0
L1D PREFETCH  REQUESTED:    8273570  ISSUED:    8172064  USEFUL:     197539  USELESS:     558245
L1D AVERAGE MISS LATENCY: 20.4247 cycles
L1I TOTAL     ACCESS:   11212896  HIT:    7534865  MISS:    3678031
L1I LOAD      ACCESS:    9644864  HIT:    7347025  MISS:    2297839
L1I RFO       ACCESS:          0  HIT:          0  MISS:          0
L1I PREFETCH  ACCESS:    1568032  HIT:     187840  MISS:    1380192
L1I WRITEBACK ACCESS:          0  HIT:          0  MISS:          0
L1I PREFETCH  REQUESTED:    2685329  ISSUED:    2685329  USEFUL:     714449  USELESS:     665741
L1I AVERAGE MISS LATENCY: 19.1968 cycles
L2C TOTAL     ACCESS:    8534697  HIT:    7235854  MISS:    1298843
L2C LOAD      ACCESS:    2919089  HIT:    2330988  MISS:     588101
L2C RFO       ACCESS:     283880  HIT:     188497  MISS:      95383
L2C PREFETCH  ACCESS:    4715948  HIT:    4107839  MISS:     608109
L2C WRITEBACK ACCESS:     615780  HIT:     608530  MISS:       7250
L2C PREFETCH  REQUESTED:    7035712  ISSUED:    7034644  USEFUL:      39791  USELESS:     568237
L2C AVERAGE MISS LATENCY: 33.2591 cycles
LLC TOTAL     ACCESS:    3054515  HIT:    3035575  MISS:      18940
LLC LOAD      ACCESS:     587601  HIT:     584695  MISS:       2906
LLC RFO       ACCESS:      95128  HIT:      93377  MISS:       1751
LLC PREFETCH  ACCESS:    2192341  HIT:    2178114  MISS:      14227
LLC WRITEBACK ACCESS:     179445  HIT:     179389  MISS:         56
LLC PREFETCH  REQUESTED:          0  ISSUED:          0  USEFUL:       1124  USELESS:      12130
LLC AVERAGE MISS LATENCY: 145.43 cycles
Major fault: 0 Minor fault: 2047
CPU 0 L1I next line prefetcher final stats
CPU 0 L1D next line prefetcher final stats

DRAM Statistics
 CHANNEL 0
 RQ ROW_BUFFER_HIT:       6339  ROW_BUFFER_MISS:      12545
 DBUS_CONGESTED:       6932
 WQ ROW_BUFFER_HIT:        140  ROW_BUFFER_MISS:       2327  FULL:          0

 AVG_CONGESTED_CYCLE: 5

CPU 0 Branch Prediction Accuracy: 92.4795% MPKI: 14.0962 Average ROB Occupancy at Mispredict: 29.3559

Branch types
NOT_BRANCH: 40627800 81.2556%
BRANCH_DIRECT_JUMP: 490939 0.981878%
BRANCH_INDIRECT: 175853 0.351706%
BRANCH_CONDITIONAL: 6321388 12.6428%
BRANCH_DIRECT_CALL: 1002065 2.00413%
BRANCH_INDIRECT_CALL: 189782 0.379564%
BRANCH_RETURN: 1191846 2.38369%
BRANCH_OTHER: 0 0%

