Initialize SIGNATURE TABLE
ST_SET: 1
ST_WAY: 256
ST_TAG_BIT: 16
ST_TAG_MASK: ffff

Initialize PATTERN TABLE
PT_SET: 512
PT_WAY: 4
SIG_DELTA_BIT: 7
C_SIG_BIT: 4
C_DELTA_BIT: 4

Initialize PREFETCH FILTER
FILTER_SET: 1024

*** ChampSim Multicore Out-of-Order Simulator ***

Warmup Instructions: 50000000
Simulation Instructions: 50000000
Number of CPUs: 1
LLC sets: 2048
LLC ways: 16
Off-chip DRAM Size: 4096 MB Channels: 1 Width: 64-bit Data Rate: 3200 MT/s

CPU 0 runs /home/xubinfang/Desktop/ChampSim/dpc3_traces/server_024.champsimtrace.xz
CPU 0 Bimodal branch predictor
CPU 0 L1I next line prefetcher
CPU 0 L1D next line prefetcher
Heartbeat CPU 0 instructions: 10000000 cycles: 3499378 heartbeat IPC: 2.85765 cumulative IPC: 2.85765 (Simulation time: 0 hr 0 min 29 sec) 
Heartbeat CPU 0 instructions: 20000002 cycles: 6991661 heartbeat IPC: 2.86346 cumulative IPC: 2.86055 (Simulation time: 0 hr 0 min 58 sec) 
Heartbeat CPU 0 instructions: 30000000 cycles: 10494231 heartbeat IPC: 2.85505 cumulative IPC: 2.85871 (Simulation time: 0 hr 1 min 27 sec) 
Heartbeat CPU 0 instructions: 40000000 cycles: 13994067 heartbeat IPC: 2.85728 cumulative IPC: 2.85835 (Simulation time: 0 hr 1 min 54 sec) 
Heartbeat CPU 0 instructions: 50000001 cycles: 17484076 heartbeat IPC: 2.86532 cumulative IPC: 2.85975 (Simulation time: 0 hr 2 min 25 sec) 

Warmup complete CPU 0 instructions: 50000001 cycles: 17484076 (Simulation time: 0 hr 2 min 25 sec) 

Heartbeat CPU 0 instructions: 60000001 cycles: 28704397 heartbeat IPC: 0.89124 cumulative IPC: 0.89124 (Simulation time: 0 hr 2 min 49 sec) 
Heartbeat CPU 0 instructions: 70000000 cycles: 39977361 heartbeat IPC: 0.887078 cumulative IPC: 0.889154 (Simulation time: 0 hr 3 min 14 sec) 
*** Reached end of trace for Core: 0 Repeating trace: /home/xubinfang/Desktop/ChampSim/dpc3_traces/server_024.champsimtrace.xz
Heartbeat CPU 0 instructions: 80000001 cycles: 51136693 heartbeat IPC: 0.896111 cumulative IPC: 0.891461 (Simulation time: 0 hr 3 min 40 sec) 
Heartbeat CPU 0 instructions: 90000000 cycles: 62437842 heartbeat IPC: 0.884866 cumulative IPC: 0.889803 (Simulation time: 0 hr 4 min 5 sec) 
Heartbeat CPU 0 instructions: 100000002 cycles: 73817142 heartbeat IPC: 0.878789 cumulative IPC: 0.887578 (Simulation time: 0 hr 4 min 31 sec) 
Finished CPU 0 instructions: 50000001 cycles: 56333066 cumulative IPC: 0.887578 (Simulation time: 0 hr 4 min 31 sec) 

ChampSim completed all CPUs

Region of Interest Statistics

CPU 0 cumulative IPC: 0.887578 instructions: 50000001 cycles: 56333066
L1D TOTAL     ACCESS:   22494005  HIT:   20973766  MISS:    1520239
L1D LOAD      ACCESS:    8287481  HIT:    7618865  MISS:     668616
L1D RFO       ACCESS:    6228030  HIT:    5954641  MISS:     273389
L1D PREFETCH  ACCESS:    7978494  HIT:    7400260  MISS:     578234
L1D WRITEBACK ACCESS:          0  HIT:          0  MISS:          0
L1D PREFETCH  REQUESTED:    8349979  ISSUED:    8241235  USEFUL:     148791  USELESS:     429447
L1D AVERAGE MISS LATENCY: 26.4612 cycles
L1I TOTAL     ACCESS:   10577037  HIT:    7465078  MISS:    3111959
L1I LOAD      ACCESS:    9244747  HIT:    7309072  MISS:    1935675
L1I RFO       ACCESS:          0  HIT:          0  MISS:          0
L1I PREFETCH  ACCESS:    1332290  HIT:     156006  MISS:    1176284
L1I WRITEBACK ACCESS:          0  HIT:          0  MISS:          0
L1I PREFETCH  REQUESTED:    2237926  ISSUED:    2237926  USEFUL:     622970  USELESS:     553319
L1I AVERAGE MISS LATENCY: 18.8751 cycles
L2C TOTAL     ACCESS:    6796578  HIT:    5744338  MISS:    1052240
L2C LOAD      ACCESS:    2352044  HIT:    1883374  MISS:     468670
L2C RFO       ACCESS:     271308  HIT:     168759  MISS:     102549
L2C PREFETCH  ACCESS:    3652838  HIT:    3177629  MISS:     475209
L2C WRITEBACK ACCESS:     520388  HIT:     514576  MISS:       5812
L2C PREFETCH  REQUESTED:    5279199  ISSUED:    5278857  USEFUL:      43259  USELESS:     431915
L2C AVERAGE MISS LATENCY: 39.7556 cycles
LLC TOTAL     ACCESS:    2423566  HIT:    2370641  MISS:      52925
LLC LOAD      ACCESS:     468269  HIT:     461758  MISS:       6511
LLC RFO       ACCESS:     102541  HIT:      80308  MISS:      22233
LLC PREFETCH  ACCESS:    1679914  HIT:    1655959  MISS:      23955
LLC WRITEBACK ACCESS:     172842  HIT:     172616  MISS:        226
LLC PREFETCH  REQUESTED:          0  ISSUED:          0  USEFUL:       2522  USELESS:      21572
LLC AVERAGE MISS LATENCY: 196.85 cycles
Major fault: 0 Minor fault: 2372
CPU 0 L1I next line prefetcher final stats
CPU 0 L1D next line prefetcher final stats

DRAM Statistics
 CHANNEL 0
 RQ ROW_BUFFER_HIT:      17820  ROW_BUFFER_MISS:      34870
 DBUS_CONGESTED:      38156
 WQ ROW_BUFFER_HIT:       2711  ROW_BUFFER_MISS:      23349  FULL:          0

 AVG_CONGESTED_CYCLE: 6

CPU 0 Branch Prediction Accuracy: 91.8907% MPKI: 14.8338 Average ROB Occupancy at Mispredict: 30.9523

Branch types
NOT_BRANCH: 40853572 81.7071%
BRANCH_DIRECT_JUMP: 566812 1.13362%
BRANCH_INDIRECT: 197171 0.394342%
BRANCH_CONDITIONAL: 6308397 12.6168%
BRANCH_DIRECT_CALL: 876399 1.7528%
BRANCH_INDIRECT_CALL: 160491 0.320982%
BRANCH_RETURN: 1036885 2.07377%
BRANCH_OTHER: 0 0%

