Initialize SIGNATURE TABLE
ST_SET: 1
ST_WAY: 256
ST_TAG_BIT: 16
ST_TAG_MASK: ffff

Initialize PATTERN TABLE
PT_SET: 512
PT_WAY: 4
SIG_DELTA_BIT: 7
C_SIG_BIT: 4
C_DELTA_BIT: 4

Initialize PREFETCH FILTER
FILTER_SET: 1024

*** ChampSim Multicore Out-of-Order Simulator ***

Warmup Instructions: 50000000
Simulation Instructions: 50000000
Number of CPUs: 1
LLC sets: 2048
LLC ways: 16
Off-chip DRAM Size: 4096 MB Channels: 1 Width: 64-bit Data Rate: 3200 MT/s

CPU 0 runs /home/xubinfang/Desktop/ChampSim/dpc3_traces/server_009.champsimtrace.xz
CPU 0 Bimodal branch predictor
CPU 0 L1I next line prefetcher
CPU 0 L1D next line prefetcher
Heartbeat CPU 0 instructions: 10000003 cycles: 3195189 heartbeat IPC: 3.12971 cumulative IPC: 3.12971 (Simulation time: 0 hr 0 min 35 sec) 
Heartbeat CPU 0 instructions: 20000001 cycles: 6383006 heartbeat IPC: 3.13694 cumulative IPC: 3.13332 (Simulation time: 0 hr 1 min 10 sec) 
Heartbeat CPU 0 instructions: 30000002 cycles: 9585865 heartbeat IPC: 3.12221 cumulative IPC: 3.12961 (Simulation time: 0 hr 1 min 46 sec) 
Heartbeat CPU 0 instructions: 40000003 cycles: 12785042 heartbeat IPC: 3.1258 cumulative IPC: 3.12866 (Simulation time: 0 hr 2 min 21 sec) 
Heartbeat CPU 0 instructions: 50000000 cycles: 16041479 heartbeat IPC: 3.07084 cumulative IPC: 3.11692 (Simulation time: 0 hr 2 min 57 sec) 

Warmup complete CPU 0 instructions: 50000004 cycles: 16041480 (Simulation time: 0 hr 2 min 57 sec) 

Heartbeat CPU 0 instructions: 60000001 cycles: 34249986 heartbeat IPC: 0.549194 cumulative IPC: 0.549194 (Simulation time: 0 hr 3 min 40 sec) 
Heartbeat CPU 0 instructions: 70000003 cycles: 56513504 heartbeat IPC: 0.449165 cumulative IPC: 0.494168 (Simulation time: 0 hr 4 min 30 sec) 
Heartbeat CPU 0 instructions: 80000000 cycles: 67383430 heartbeat IPC: 0.919969 cumulative IPC: 0.584317 (Simulation time: 0 hr 5 min 2 sec) 
Heartbeat CPU 0 instructions: 90000001 cycles: 78457071 heartbeat IPC: 0.903045 cumulative IPC: 0.640865 (Simulation time: 0 hr 5 min 33 sec) 
Heartbeat CPU 0 instructions: 100000001 cycles: 89358466 heartbeat IPC: 0.917314 cumulative IPC: 0.68197 (Simulation time: 0 hr 6 min 4 sec) 
Finished CPU 0 instructions: 50000000 cycles: 73316987 cumulative IPC: 0.68197 (Simulation time: 0 hr 6 min 4 sec) 

ChampSim completed all CPUs

Region of Interest Statistics

CPU 0 cumulative IPC: 0.68197 instructions: 50000000 cycles: 73316987
L1D TOTAL     ACCESS:   22799653  HIT:   18218767  MISS:    4580886
L1D LOAD      ACCESS:    9186506  HIT:    6916656  MISS:    2269850
L1D RFO       ACCESS:    4625654  HIT:    4520854  MISS:     104800
L1D PREFETCH  ACCESS:    8987493  HIT:    6781257  MISS:    2206236
L1D WRITEBACK ACCESS:          0  HIT:          0  MISS:          0
L1D PREFETCH  REQUESTED:    9220346  ISSUED:    9118945  USEFUL:     116718  USELESS:    2089517
L1D AVERAGE MISS LATENCY: 20.1466 cycles
L1I TOTAL     ACCESS:   10224089  HIT:    8983011  MISS:    1241078
L1I LOAD      ACCESS:    9744292  HIT:    8918957  MISS:     825335
L1I RFO       ACCESS:          0  HIT:          0  MISS:          0
L1I PREFETCH  ACCESS:     479797  HIT:      64054  MISS:     415743
L1I WRITEBACK ACCESS:          0  HIT:          0  MISS:          0
L1I PREFETCH  REQUESTED:    1083792  ISSUED:    1083792  USEFUL:     238388  USELESS:     177374
L1I AVERAGE MISS LATENCY: 26.1055 cycles
L2C TOTAL     ACCESS:    7633348  HIT:    6541256  MISS:    1092092
L2C LOAD      ACCESS:    2866722  HIT:    2424287  MISS:     442435
L2C RFO       ACCESS:     103872  HIT:      64061  MISS:      39811
L2C PREFETCH  ACCESS:    4405881  HIT:    3797010  MISS:     608871
L2C WRITEBACK ACCESS:     256873  HIT:     255898  MISS:        975
L2C PREFETCH  REQUESTED:    7070367  ISSUED:    7070188  USEFUL:      53127  USELESS:     555345
L2C AVERAGE MISS LATENCY: 43.957 cycles
LLC TOTAL     ACCESS:    2521662  HIT:    2370805  MISS:     150857
LLC LOAD      ACCESS:     441539  HIT:     413140  MISS:      28399
LLC RFO       ACCESS:      39809  HIT:      30161  MISS:       9648
LLC PREFETCH  ACCESS:    1904216  HIT:    1791757  MISS:     112459
LLC WRITEBACK ACCESS:     136098  HIT:     135747  MISS:        351
LLC PREFETCH  REQUESTED:          0  ISSUED:          0  USEFUL:      15982  USELESS:      95348
LLC AVERAGE MISS LATENCY: 163.286 cycles
Major fault: 0 Minor fault: 6357
CPU 0 L1I next line prefetcher final stats
CPU 0 L1D next line prefetcher final stats

DRAM Statistics
 CHANNEL 0
 RQ ROW_BUFFER_HIT:      30622  ROW_BUFFER_MISS:     119877
 DBUS_CONGESTED:      60151
 WQ ROW_BUFFER_HIT:       8352  ROW_BUFFER_MISS:      40373  FULL:          0

 AVG_CONGESTED_CYCLE: 5

CPU 0 Branch Prediction Accuracy: 94.3582% MPKI: 11.8964 Average ROB Occupancy at Mispredict: 45.0753

Branch types
NOT_BRANCH: 39456587 78.9132%
BRANCH_DIRECT_JUMP: 445350 0.8907%
BRANCH_INDIRECT: 131149 0.262298%
BRANCH_CONDITIONAL: 8130188 16.2604%
BRANCH_DIRECT_CALL: 732485 1.46497%
BRANCH_INDIRECT_CALL: 172369 0.344738%
BRANCH_RETURN: 931558 1.86312%
BRANCH_OTHER: 0 0%

