Initialize SIGNATURE TABLE
ST_SET: 1
ST_WAY: 256
ST_TAG_BIT: 16
ST_TAG_MASK: ffff

Initialize PATTERN TABLE
PT_SET: 512
PT_WAY: 4
SIG_DELTA_BIT: 7
C_SIG_BIT: 4
C_DELTA_BIT: 4

Initialize PREFETCH FILTER
FILTER_SET: 1024

*** ChampSim Multicore Out-of-Order Simulator ***

Warmup Instructions: 50000000
Simulation Instructions: 50000000
Number of CPUs: 1
LLC sets: 2048
LLC ways: 16
Off-chip DRAM Size: 4096 MB Channels: 1 Width: 64-bit Data Rate: 3200 MT/s

CPU 0 runs /home/xubinfang/Desktop/ChampSim/dpc3_traces/server_001.champsimtrace.xz
CPU 0 Bimodal branch predictor
CPU 0 L1I next line prefetcher
CPU 0 L1D next line prefetcher
Heartbeat CPU 0 instructions: 10000002 cycles: 3154784 heartbeat IPC: 3.16979 cumulative IPC: 3.16979 (Simulation time: 0 hr 0 min 24 sec) 
Heartbeat CPU 0 instructions: 20000000 cycles: 6368917 heartbeat IPC: 3.11126 cumulative IPC: 3.14025 (Simulation time: 0 hr 0 min 47 sec) 
Heartbeat CPU 0 instructions: 30000003 cycles: 9554505 heartbeat IPC: 3.13914 cumulative IPC: 3.13988 (Simulation time: 0 hr 1 min 11 sec) 
Heartbeat CPU 0 instructions: 40000002 cycles: 12761329 heartbeat IPC: 3.11835 cumulative IPC: 3.13447 (Simulation time: 0 hr 1 min 35 sec) 
Heartbeat CPU 0 instructions: 50000003 cycles: 15979855 heartbeat IPC: 3.10701 cumulative IPC: 3.12894 (Simulation time: 0 hr 1 min 59 sec) 

Warmup complete CPU 0 instructions: 50000003 cycles: 15979855 (Simulation time: 0 hr 1 min 59 sec) 

Heartbeat CPU 0 instructions: 60000001 cycles: 24895170 heartbeat IPC: 1.12167 cumulative IPC: 1.12167 (Simulation time: 0 hr 2 min 21 sec) 
Heartbeat CPU 0 instructions: 70000001 cycles: 33346357 heartbeat IPC: 1.18327 cumulative IPC: 1.15164 (Simulation time: 0 hr 2 min 42 sec) 
Heartbeat CPU 0 instructions: 80000002 cycles: 41942828 heartbeat IPC: 1.16327 cumulative IPC: 1.15549 (Simulation time: 0 hr 3 min 3 sec) 
Heartbeat CPU 0 instructions: 90000002 cycles: 50987814 heartbeat IPC: 1.10558 cumulative IPC: 1.1426 (Simulation time: 0 hr 3 min 23 sec) 
Heartbeat CPU 0 instructions: 100000003 cycles: 59387670 heartbeat IPC: 1.1905 cumulative IPC: 1.15187 (Simulation time: 0 hr 3 min 44 sec) 
Finished CPU 0 instructions: 50000000 cycles: 43407815 cumulative IPC: 1.15187 (Simulation time: 0 hr 3 min 44 sec) 

ChampSim completed all CPUs

Region of Interest Statistics

CPU 0 cumulative IPC: 1.15187 instructions: 50000000 cycles: 43407815
L1D TOTAL     ACCESS:   18560181  HIT:   18048773  MISS:     511408
L1D LOAD      ACCESS:    6910881  HIT:    6711630  MISS:     199251
L1D RFO       ACCESS:    5080303  HIT:    4997799  MISS:      82504
L1D PREFETCH  ACCESS:    6568997  HIT:    6339344  MISS:     229653
L1D WRITEBACK ACCESS:          0  HIT:          0  MISS:          0
L1D PREFETCH  REQUESTED:    6939898  ISSUED:    6741841  USEFUL:     137380  USELESS:      92401
L1D AVERAGE MISS LATENCY: 91.2086 cycles
L1I TOTAL     ACCESS:    8549968  HIT:    7892334  MISS:     657634
L1I LOAD      ACCESS:    8245331  HIT:    7808295  MISS:     437036
L1I RFO       ACCESS:          0  HIT:          0  MISS:          0
L1I PREFETCH  ACCESS:     304637  HIT:      84039  MISS:     220598
L1I WRITEBACK ACCESS:          0  HIT:          0  MISS:          0
L1I PREFETCH  REQUESTED:     565849  ISSUED:     565849  USEFUL:     143514  USELESS:      77104
L1I AVERAGE MISS LATENCY: 26.6336 cycles
L2C TOTAL     ACCESS:    1927377  HIT:    1441774  MISS:     485603
L2C LOAD      ACCESS:     544472  HIT:     390394  MISS:     154078
L2C RFO       ACCESS:      81150  HIT:      10332  MISS:      70818
L2C PREFETCH  ACCESS:    1093893  HIT:     833617  MISS:     260276
L2C WRITEBACK ACCESS:     207862  HIT:     207431  MISS:        431
L2C PREFETCH  REQUESTED:    1819687  ISSUED:    1819475  USEFUL:      29280  USELESS:     230334
L2C AVERAGE MISS LATENCY: 109.743 cycles
LLC TOTAL     ACCESS:    1186091  HIT:     848167  MISS:     337924
LLC LOAD      ACCESS:     153754  HIT:     108954  MISS:      44800
LLC RFO       ACCESS:      70817  HIT:       6594  MISS:      64223
LLC PREFETCH  ACCESS:     793980  HIT:     565431  MISS:     228549
LLC WRITEBACK ACCESS:     167540  HIT:     167188  MISS:        352
LLC PREFETCH  REQUESTED:          0  ISSUED:          0  USEFUL:      34410  USELESS:     190152
LLC AVERAGE MISS LATENCY: 201.111 cycles
Major fault: 0 Minor fault: 16701
CPU 0 L1I next line prefetcher final stats
CPU 0 L1D next line prefetcher final stats

DRAM Statistics
 CHANNEL 0
 RQ ROW_BUFFER_HIT:      97185  ROW_BUFFER_MISS:     240369
 DBUS_CONGESTED:     223343
 WQ ROW_BUFFER_HIT:      36008  ROW_BUFFER_MISS:     123772  FULL:          0

 AVG_CONGESTED_CYCLE: 6

CPU 0 Branch Prediction Accuracy: 95.5843% MPKI: 7.52998 Average ROB Occupancy at Mispredict: 51.3367

Branch types
NOT_BRANCH: 41473340 82.9467%
BRANCH_DIRECT_JUMP: 347938 0.695876%
BRANCH_INDIRECT: 148210 0.29642%
BRANCH_CONDITIONAL: 6817239 13.6345%
BRANCH_DIRECT_CALL: 570721 1.14144%
BRANCH_INDIRECT_CALL: 25133 0.050266%
BRANCH_RETURN: 617119 1.23424%
BRANCH_OTHER: 0 0%

