Initialize SIGNATURE TABLE
ST_SET: 1
ST_WAY: 256
ST_TAG_BIT: 16
ST_TAG_MASK: ffff

Initialize PATTERN TABLE
PT_SET: 512
PT_WAY: 4
SIG_DELTA_BIT: 7
C_SIG_BIT: 4
C_DELTA_BIT: 4

Initialize PREFETCH FILTER
FILTER_SET: 1024

*** ChampSim Multicore Out-of-Order Simulator ***

Warmup Instructions: 50000000
Simulation Instructions: 50000000
Number of CPUs: 1
LLC sets: 2048
LLC ways: 16
Off-chip DRAM Size: 4096 MB Channels: 1 Width: 64-bit Data Rate: 3200 MT/s

CPU 0 runs /home/xubinfang/Desktop/ChampSim/dpc3_traces/spec_gcc_003.champsimtrace.xz
CPU 0 Bimodal branch predictor
CPU 0 L1I next line prefetcher
CPU 0 L1D next line prefetcher
Heartbeat CPU 0 instructions: 10000001 cycles: 3490025 heartbeat IPC: 2.86531 cumulative IPC: 2.86531 (Simulation time: 0 hr 0 min 20 sec) 
Heartbeat CPU 0 instructions: 20000000 cycles: 6966136 heartbeat IPC: 2.87678 cumulative IPC: 2.87103 (Simulation time: 0 hr 0 min 40 sec) 
Heartbeat CPU 0 instructions: 30000002 cycles: 10407604 heartbeat IPC: 2.90574 cumulative IPC: 2.88251 (Simulation time: 0 hr 1 min 1 sec) 
Heartbeat CPU 0 instructions: 40000000 cycles: 13874715 heartbeat IPC: 2.88425 cumulative IPC: 2.88294 (Simulation time: 0 hr 1 min 22 sec) 
Heartbeat CPU 0 instructions: 50000001 cycles: 17188234 heartbeat IPC: 3.01794 cumulative IPC: 2.90897 (Simulation time: 0 hr 1 min 41 sec) 

Warmup complete CPU 0 instructions: 50000001 cycles: 17188234 (Simulation time: 0 hr 1 min 41 sec) 

Heartbeat CPU 0 instructions: 60000000 cycles: 59551943 heartbeat IPC: 0.236051 cumulative IPC: 0.236051 (Simulation time: 0 hr 2 min 31 sec) 
Heartbeat CPU 0 instructions: 70000000 cycles: 104691786 heartbeat IPC: 0.221534 cumulative IPC: 0.228562 (Simulation time: 0 hr 3 min 21 sec) 
Heartbeat CPU 0 instructions: 80000002 cycles: 150845384 heartbeat IPC: 0.216668 cumulative IPC: 0.224455 (Simulation time: 0 hr 4 min 10 sec) 
Heartbeat CPU 0 instructions: 90000002 cycles: 190222554 heartbeat IPC: 0.253954 cumulative IPC: 0.231168 (Simulation time: 0 hr 4 min 54 sec) 
Heartbeat CPU 0 instructions: 100000001 cycles: 239318745 heartbeat IPC: 0.203682 cumulative IPC: 0.225093 (Simulation time: 0 hr 5 min 47 sec) 
Finished CPU 0 instructions: 50000000 cycles: 222130511 cumulative IPC: 0.225093 (Simulation time: 0 hr 5 min 47 sec) 

ChampSim completed all CPUs

Region of Interest Statistics

CPU 0 cumulative IPC: 0.225093 instructions: 50000000 cycles: 222130511
L1D TOTAL     ACCESS:   17921002  HIT:   12196111  MISS:    5724891
L1D LOAD      ACCESS:    5058020  HIT:    4677738  MISS:     380282
L1D RFO       ACCESS:    8286239  HIT:    3234218  MISS:    5052021
L1D PREFETCH  ACCESS:    4576743  HIT:    4284155  MISS:     292588
L1D WRITEBACK ACCESS:          0  HIT:          0  MISS:          0
L1D PREFETCH  REQUESTED:    5077973  ISSUED:    5021600  USEFUL:     154809  USELESS:     137959
L1D AVERAGE MISS LATENCY: 493.566 cycles
L1I TOTAL     ACCESS:   11759513  HIT:   10824660  MISS:     934853
L1I LOAD      ACCESS:   11354475  HIT:   10752346  MISS:     602129
L1I RFO       ACCESS:          0  HIT:          0  MISS:          0
L1I PREFETCH  ACCESS:     405038  HIT:      72314  MISS:     332724
L1I WRITEBACK ACCESS:          0  HIT:          0  MISS:          0
L1I PREFETCH  REQUESTED:     702871  ISSUED:     702871  USEFUL:     160049  USELESS:     172678
L1I AVERAGE MISS LATENCY: 57.8224 cycles
L2C TOTAL     ACCESS:   12175477  HIT:    6107605  MISS:    6067872
L2C LOAD      ACCESS:     727298  HIT:     346212  MISS:     381086
L2C RFO       ACCESS:    5050348  HIT:       6630  MISS:    5043718
L2C PREFETCH  ACCESS:    1239844  HIT:     596902  MISS:     642942
L2C WRITEBACK ACCESS:    5157987  HIT:    5157861  MISS:        126
L2C PREFETCH  REQUESTED:    2034098  ISSUED:    2034088  USEFUL:      47880  USELESS:     591789
L2C AVERAGE MISS LATENCY: 461.587 cycles
LLC TOTAL     ACCESS:   11919602  HIT:    7160794  MISS:    4758808
LLC LOAD      ACCESS:     380982  HIT:     269002  MISS:     111980
LLC RFO       ACCESS:    5043719  HIT:     656791  MISS:    4386928
LLC PREFETCH  ACCESS:    1361013  HIT:    1101113  MISS:     259900
LLC WRITEBACK ACCESS:    5133888  HIT:    5133888  MISS:          0
LLC PREFETCH  REQUESTED:          0  ISSUED:          0  USEFUL:      36124  USELESS:     223492
LLC AVERAGE MISS LATENCY: 557.391 cycles
Major fault: 0 Minor fault: 2820
CPU 0 L1I next line prefetcher final stats
CPU 0 L1D next line prefetcher final stats

DRAM Statistics
 CHANNEL 0
 RQ ROW_BUFFER_HIT:    1447203  ROW_BUFFER_MISS:    3311574
 DBUS_CONGESTED:    8133699
 WQ ROW_BUFFER_HIT:    1198197  ROW_BUFFER_MISS:    3217279  FULL:          0

 AVG_CONGESTED_CYCLE: 6

CPU 0 Branch Prediction Accuracy: 96.3569% MPKI: 8.52058 Average ROB Occupancy at Mispredict: 38.5778

Branch types
NOT_BRANCH: 38305858 76.6117%
BRANCH_DIRECT_JUMP: 384281 0.768562%
BRANCH_INDIRECT: 71949 0.143898%
BRANCH_CONDITIONAL: 9879825 19.7597%
BRANCH_DIRECT_CALL: 650586 1.30117%
BRANCH_INDIRECT_CALL: 28456 0.056912%
BRANCH_RETURN: 679046 1.35809%
BRANCH_OTHER: 0 0%

