Initialize SIGNATURE TABLE
ST_SET: 1
ST_WAY: 256
ST_TAG_BIT: 16
ST_TAG_MASK: ffff

Initialize PATTERN TABLE
PT_SET: 512
PT_WAY: 4
SIG_DELTA_BIT: 7
C_SIG_BIT: 4
C_DELTA_BIT: 4

Initialize PREFETCH FILTER
FILTER_SET: 1024

*** ChampSim Multicore Out-of-Order Simulator ***

Warmup Instructions: 50000000
Simulation Instructions: 50000000
Number of CPUs: 1
LLC sets: 2048
LLC ways: 16
Off-chip DRAM Size: 4096 MB Channels: 1 Width: 64-bit Data Rate: 3200 MT/s

CPU 0 runs /home/xubinfang/Desktop/ChampSim/dpc3_traces/client_006.champsimtrace.xz
CPU 0 Bimodal branch predictor
CPU 0 EPI prefetcher
CPU 0 L1D next line prefetcher
Heartbeat CPU 0 instructions: 10000003 cycles: 4267477 heartbeat IPC: 2.34331 cumulative IPC: 2.34331 (Simulation time: 0 hr 0 min 45 sec) 
Heartbeat CPU 0 instructions: 20000000 cycles: 8307415 heartbeat IPC: 2.47528 cumulative IPC: 2.40749 (Simulation time: 0 hr 1 min 29 sec) 
Heartbeat CPU 0 instructions: 30000003 cycles: 11370670 heartbeat IPC: 3.2645 cumulative IPC: 2.63837 (Simulation time: 0 hr 2 min 6 sec) 
Heartbeat CPU 0 instructions: 40000000 cycles: 14715388 heartbeat IPC: 2.98979 cumulative IPC: 2.71824 (Simulation time: 0 hr 2 min 46 sec) 
Heartbeat CPU 0 instructions: 50000003 cycles: 18820295 heartbeat IPC: 2.43611 cumulative IPC: 2.65671 (Simulation time: 0 hr 3 min 30 sec) 

Warmup complete CPU 0 instructions: 50000003 cycles: 18820295 (Simulation time: 0 hr 3 min 30 sec) 

Heartbeat CPU 0 instructions: 60000001 cycles: 27509860 heartbeat IPC: 1.15081 cumulative IPC: 1.15081 (Simulation time: 0 hr 4 min 4 sec) 
Heartbeat CPU 0 instructions: 70000000 cycles: 38465961 heartbeat IPC: 0.912733 cumulative IPC: 1.01804 (Simulation time: 0 hr 4 min 41 sec) 
Heartbeat CPU 0 instructions: 80000002 cycles: 47561890 heartbeat IPC: 1.09939 cumulative IPC: 1.04378 (Simulation time: 0 hr 5 min 18 sec) 
Heartbeat CPU 0 instructions: 90000003 cycles: 57384529 heartbeat IPC: 1.01806 cumulative IPC: 1.03723 (Simulation time: 0 hr 5 min 50 sec) 
Heartbeat CPU 0 instructions: 100000001 cycles: 66216956 heartbeat IPC: 1.13219 cumulative IPC: 1.05493 (Simulation time: 0 hr 6 min 25 sec) 
Finished CPU 0 instructions: 50000002 cycles: 47396662 cumulative IPC: 1.05493 (Simulation time: 0 hr 6 min 25 sec) 

ChampSim completed all CPUs

Region of Interest Statistics

CPU 0 cumulative IPC: 1.05493 instructions: 50000002 cycles: 47396662
L1D TOTAL     ACCESS:   17435188  HIT:   16707831  MISS:     727357
L1D LOAD      ACCESS:    6776845  HIT:    6373104  MISS:     403741
L1D RFO       ACCESS:    4350882  HIT:    4308285  MISS:      42597
L1D PREFETCH  ACCESS:    6307461  HIT:    6026442  MISS:     281019
L1D WRITEBACK ACCESS:          0  HIT:          0  MISS:          0
L1D PREFETCH  REQUESTED:    6824243  ISSUED:    6636362  USEFUL:     119812  USELESS:     161081
L1D AVERAGE MISS LATENCY: 80.9011 cycles
L1I TOTAL     ACCESS:   24762719  HIT:   23987081  MISS:     775638
L1I LOAD      ACCESS:    8547369  HIT:    8525139  MISS:      22230
L1I RFO       ACCESS:          0  HIT:          0  MISS:          0
L1I PREFETCH  ACCESS:   16215350  HIT:   15461942  MISS:     753408
L1I WRITEBACK ACCESS:          0  HIT:          0  MISS:          0
L1I PREFETCH  REQUESTED:   18339283  ISSUED:   18339283  USEFUL:     678765  USELESS:      74685
L1I AVERAGE MISS LATENCY: 22.803 cycles
L2C TOTAL     ACCESS:    2136539  HIT:    1591294  MISS:     545245
L2C LOAD      ACCESS:     354956  HIT:     114228  MISS:     240728
L2C RFO       ACCESS:      42329  HIT:      12423  MISS:      29906
L2C PREFETCH  ACCESS:    1563261  HIT:    1289378  MISS:     273883
L2C WRITEBACK ACCESS:     175993  HIT:     175265  MISS:        728
L2C PREFETCH  REQUESTED:    2626396  ISSUED:    2603722  USEFUL:      11621  USELESS:     262509
L2C AVERAGE MISS LATENCY: 114.282 cycles
LLC TOTAL     ACCESS:    1292171  HIT:     895960  MISS:     396211
LLC LOAD      ACCESS:     231005  HIT:     135330  MISS:      95675
LLC RFO       ACCESS:      29906  HIT:       5050  MISS:      24856
LLC PREFETCH  ACCESS:     897311  HIT:     622324  MISS:     274987
LLC WRITEBACK ACCESS:     133949  HIT:     133256  MISS:        693
LLC PREFETCH  REQUESTED:          0  ISSUED:          0  USEFUL:      44291  USELESS:     234691
LLC AVERAGE MISS LATENCY: 194.83 cycles
Major fault: 0 Minor fault: 10527
CPU 0 L1I EPI prefetcher final stats
CPU 0 L1D next line prefetcher final stats

DRAM Statistics
 CHANNEL 0
 RQ ROW_BUFFER_HIT:     104287  ROW_BUFFER_MISS:     291217
 DBUS_CONGESTED:     227972
 WQ ROW_BUFFER_HIT:      20612  ROW_BUFFER_MISS:      94218  FULL:          0

 AVG_CONGESTED_CYCLE: 5

CPU 0 Branch Prediction Accuracy: 91.7566% MPKI: 14.1154 Average ROB Occupancy at Mispredict: 45.8273

Branch types
NOT_BRANCH: 41438074 82.8761%
BRANCH_DIRECT_JUMP: 413829 0.827658%
BRANCH_INDIRECT: 47058 0.094116%
BRANCH_CONDITIONAL: 6843840 13.6877%
BRANCH_DIRECT_CALL: 536885 1.07377%
BRANCH_INDIRECT_CALL: 90642 0.181284%
BRANCH_RETURN: 629329 1.25866%
BRANCH_OTHER: 0 0%

