Initialize SIGNATURE TABLE
ST_SET: 1
ST_WAY: 256
ST_TAG_BIT: 16
ST_TAG_MASK: ffff

Initialize PATTERN TABLE
PT_SET: 512
PT_WAY: 4
SIG_DELTA_BIT: 7
C_SIG_BIT: 4
C_DELTA_BIT: 4

Initialize PREFETCH FILTER
FILTER_SET: 1024

*** ChampSim Multicore Out-of-Order Simulator ***

Warmup Instructions: 50000000
Simulation Instructions: 50000000
Number of CPUs: 1
LLC sets: 2048
LLC ways: 16
Off-chip DRAM Size: 4096 MB Channels: 1 Width: 64-bit Data Rate: 3200 MT/s

CPU 0 runs /home/xubinfang/Desktop/ChampSim/dpc3_traces/client_007.champsimtrace.xz
CPU 0 Bimodal branch predictor
CPU 0 EPI prefetcher
CPU 0 L1D next line prefetcher
Heartbeat CPU 0 instructions: 10000001 cycles: 3641848 heartbeat IPC: 2.74586 cumulative IPC: 2.74586 (Simulation time: 0 hr 0 min 40 sec) 
Heartbeat CPU 0 instructions: 20000003 cycles: 7032943 heartbeat IPC: 2.9489 cumulative IPC: 2.84376 (Simulation time: 0 hr 1 min 19 sec) 
Heartbeat CPU 0 instructions: 30000000 cycles: 10903919 heartbeat IPC: 2.58333 cumulative IPC: 2.7513 (Simulation time: 0 hr 2 min 4 sec) 
Heartbeat CPU 0 instructions: 40000003 cycles: 15063868 heartbeat IPC: 2.40388 cumulative IPC: 2.65536 (Simulation time: 0 hr 2 min 47 sec) 
Heartbeat CPU 0 instructions: 50000002 cycles: 18468330 heartbeat IPC: 2.93732 cumulative IPC: 2.70734 (Simulation time: 0 hr 3 min 27 sec) 

Warmup complete CPU 0 instructions: 50000002 cycles: 18468330 (Simulation time: 0 hr 3 min 27 sec) 

Heartbeat CPU 0 instructions: 60000001 cycles: 25784039 heartbeat IPC: 1.36692 cumulative IPC: 1.36692 (Simulation time: 0 hr 4 min 9 sec) 
Heartbeat CPU 0 instructions: 70000003 cycles: 34841553 heartbeat IPC: 1.10406 cumulative IPC: 1.22151 (Simulation time: 0 hr 4 min 46 sec) 
Heartbeat CPU 0 instructions: 80000002 cycles: 40673978 heartbeat IPC: 1.71455 cumulative IPC: 1.35101 (Simulation time: 0 hr 5 min 8 sec) 
Heartbeat CPU 0 instructions: 90000000 cycles: 48965663 heartbeat IPC: 1.20603 cumulative IPC: 1.31159 (Simulation time: 0 hr 5 min 41 sec) 
Heartbeat CPU 0 instructions: 100000001 cycles: 58951152 heartbeat IPC: 1.00145 cumulative IPC: 1.23509 (Simulation time: 0 hr 6 min 8 sec) 
Finished CPU 0 instructions: 50000000 cycles: 40482823 cumulative IPC: 1.23509 (Simulation time: 0 hr 6 min 8 sec) 

ChampSim completed all CPUs

Region of Interest Statistics

CPU 0 cumulative IPC: 1.23509 instructions: 50000000 cycles: 40482823
L1D TOTAL     ACCESS:   22075420  HIT:   20905380  MISS:    1170040
L1D LOAD      ACCESS:    8771508  HIT:    8235946  MISS:     535562
L1D RFO       ACCESS:    4955538  HIT:    4865684  MISS:      89854
L1D PREFETCH  ACCESS:    8348374  HIT:    7803750  MISS:     544624
L1D WRITEBACK ACCESS:          0  HIT:          0  MISS:          0
L1D PREFETCH  REQUESTED:    8834150  ISSUED:    8586710  USEFUL:     162452  USELESS:     382187
L1D AVERAGE MISS LATENCY: 33.8645 cycles
L1I TOTAL     ACCESS:   25223586  HIT:   24233924  MISS:     989662
L1I LOAD      ACCESS:    8977828  HIT:    8960802  MISS:      17026
L1I RFO       ACCESS:          0  HIT:          0  MISS:          0
L1I PREFETCH  ACCESS:   16245758  HIT:   15273122  MISS:     972636
L1I WRITEBACK ACCESS:          0  HIT:          0  MISS:          0
L1I PREFETCH  REQUESTED:   19364683  ISSUED:   19364683  USEFUL:     830522  USELESS:     142127
L1I AVERAGE MISS LATENCY: 16.4398 cycles
L2C TOTAL     ACCESS:    3123582  HIT:    2917848  MISS:     205734
L2C LOAD      ACCESS:     519165  HIT:     448234  MISS:      70931
L2C RFO       ACCESS:      87830  HIT:      47843  MISS:      39987
L2C PREFETCH  ACCESS:    2188705  HIT:    2093991  MISS:      94714
L2C WRITEBACK ACCESS:     327882  HIT:     327780  MISS:        102
L2C PREFETCH  REQUESTED:    2516374  ISSUED:    2511211  USEFUL:       9193  USELESS:      84360
L2C AVERAGE MISS LATENCY: 120.827 cycles
LLC TOTAL     ACCESS:     964609  HIT:     796275  MISS:     168334
LLC LOAD      ACCESS:      70831  HIT:      35398  MISS:      35433
LLC RFO       ACCESS:      39987  HIT:       7773  MISS:      32214
LLC PREFETCH  ACCESS:     779397  HIT:     679030  MISS:     100367
LLC WRITEBACK ACCESS:      74394  HIT:      74074  MISS:        320
LLC PREFETCH  REQUESTED:          0  ISSUED:          0  USEFUL:      20301  USELESS:      78949
LLC AVERAGE MISS LATENCY: 178.546 cycles
Major fault: 0 Minor fault: 4405
CPU 0 L1I EPI prefetcher final stats
CPU 0 L1D next line prefetcher final stats

DRAM Statistics
 CHANNEL 0
 RQ ROW_BUFFER_HIT:      33851  ROW_BUFFER_MISS:     134157
 DBUS_CONGESTED:      91165
 WQ ROW_BUFFER_HIT:      13003  ROW_BUFFER_MISS:      45788  FULL:          0

 AVG_CONGESTED_CYCLE: 5

CPU 0 Branch Prediction Accuracy: 94.8618% MPKI: 8.3988 Average ROB Occupancy at Mispredict: 71.1947

Branch types
NOT_BRANCH: 41826773 83.6535%
BRANCH_DIRECT_JUMP: 735330 1.47066%
BRANCH_INDIRECT: 269194 0.538388%
BRANCH_CONDITIONAL: 5957947 11.9159%
BRANCH_DIRECT_CALL: 368758 0.737516%
BRANCH_INDIRECT_CALL: 226975 0.45395%
BRANCH_RETURN: 614696 1.22939%
BRANCH_OTHER: 0 0%

