Initialize SIGNATURE TABLE
ST_SET: 1
ST_WAY: 256
ST_TAG_BIT: 16
ST_TAG_MASK: ffff

Initialize PATTERN TABLE
PT_SET: 512
PT_WAY: 4
SIG_DELTA_BIT: 7
C_SIG_BIT: 4
C_DELTA_BIT: 4

Initialize PREFETCH FILTER
FILTER_SET: 1024

*** ChampSim Multicore Out-of-Order Simulator ***

Warmup Instructions: 50000000
Simulation Instructions: 50000000
Number of CPUs: 1
LLC sets: 2048
LLC ways: 16
Off-chip DRAM Size: 4096 MB Channels: 1 Width: 64-bit Data Rate: 3200 MT/s

CPU 0 runs /home/xubinfang/Desktop/ChampSim/dpc3_traces/client_002.champsimtrace.xz
CPU 0 Bimodal branch predictor
CPU 0 EPI prefetcher
CPU 0 L1D next line prefetcher
Heartbeat CPU 0 instructions: 10000000 cycles: 3405139 heartbeat IPC: 2.93674 cumulative IPC: 2.93674 (Simulation time: 0 hr 0 min 34 sec) 
Heartbeat CPU 0 instructions: 20000002 cycles: 6860989 heartbeat IPC: 2.89364 cumulative IPC: 2.91503 (Simulation time: 0 hr 1 min 10 sec) 
Heartbeat CPU 0 instructions: 30000001 cycles: 10293815 heartbeat IPC: 2.91305 cumulative IPC: 2.91437 (Simulation time: 0 hr 1 min 44 sec) 
Heartbeat CPU 0 instructions: 40000002 cycles: 13726731 heartbeat IPC: 2.91298 cumulative IPC: 2.91402 (Simulation time: 0 hr 2 min 16 sec) 
Heartbeat CPU 0 instructions: 50000002 cycles: 17167653 heartbeat IPC: 2.9062 cumulative IPC: 2.91245 (Simulation time: 0 hr 2 min 48 sec) 

Warmup complete CPU 0 instructions: 50000002 cycles: 17167653 (Simulation time: 0 hr 2 min 48 sec) 

Heartbeat CPU 0 instructions: 60000002 cycles: 24162765 heartbeat IPC: 1.42957 cumulative IPC: 1.42957 (Simulation time: 0 hr 3 min 21 sec) 
Heartbeat CPU 0 instructions: 70000001 cycles: 31282108 heartbeat IPC: 1.40462 cumulative IPC: 1.41699 (Simulation time: 0 hr 3 min 53 sec) 
Heartbeat CPU 0 instructions: 80000003 cycles: 38162611 heartbeat IPC: 1.45338 cumulative IPC: 1.42891 (Simulation time: 0 hr 4 min 22 sec) 
Heartbeat CPU 0 instructions: 90000001 cycles: 45648861 heartbeat IPC: 1.33578 cumulative IPC: 1.40443 (Simulation time: 0 hr 4 min 50 sec) 
Heartbeat CPU 0 instructions: 100000003 cycles: 52647422 heartbeat IPC: 1.42887 cumulative IPC: 1.40925 (Simulation time: 0 hr 5 min 17 sec) 
Finished CPU 0 instructions: 50000001 cycles: 35479769 cumulative IPC: 1.40925 (Simulation time: 0 hr 5 min 17 sec) 

ChampSim completed all CPUs

Region of Interest Statistics

CPU 0 cumulative IPC: 1.40925 instructions: 50000001 cycles: 35479769
L1D TOTAL     ACCESS:   20125310  HIT:   19785853  MISS:     339457
L1D LOAD      ACCESS:    6978953  HIT:    6863605  MISS:     115348
L1D RFO       ACCESS:    6442096  HIT:    6352431  MISS:      89665
L1D PREFETCH  ACCESS:    6704261  HIT:    6569817  MISS:     134444
L1D WRITEBACK ACCESS:          0  HIT:          0  MISS:          0
L1D PREFETCH  REQUESTED:    6989782  ISSUED:    6779102  USEFUL:      55534  USELESS:      79053
L1D AVERAGE MISS LATENCY: 47.9019 cycles
L1I TOTAL     ACCESS:   28325624  HIT:   27449544  MISS:     876080
L1I LOAD      ACCESS:    9584252  HIT:    9445406  MISS:     138846
L1I RFO       ACCESS:          0  HIT:          0  MISS:          0
L1I PREFETCH  ACCESS:   18741372  HIT:   18004138  MISS:     737234
L1I WRITEBACK ACCESS:          0  HIT:          0  MISS:          0
L1I PREFETCH  REQUESTED:   21342719  ISSUED:   21342719  USEFUL:     520933  USELESS:     216330
L1I AVERAGE MISS LATENCY: 17.8735 cycles
L2C TOTAL     ACCESS:    1745685  HIT:    1504588  MISS:     241097
L2C LOAD      ACCESS:     222254  HIT:     134615  MISS:      87639
L2C RFO       ACCESS:      88766  HIT:      23198  MISS:      65568
L2C PREFETCH  ACCESS:    1309160  HIT:    1221718  MISS:      87442
L2C WRITEBACK ACCESS:     125505  HIT:     125057  MISS:        448
L2C PREFETCH  REQUESTED:    1121010  ISSUED:    1120789  USEFUL:      14335  USELESS:      72651
L2C AVERAGE MISS LATENCY: 61.6221 cycles
LLC TOTAL     ACCESS:     616010  HIT:     551849  MISS:      64161
LLC LOAD      ACCESS:      87628  HIT:      81269  MISS:       6359
LLC RFO       ACCESS:      65568  HIT:      36040  MISS:      29528
LLC PREFETCH  ACCESS:     378859  HIT:     350839  MISS:      28020
LLC WRITEBACK ACCESS:      83955  HIT:      83701  MISS:        254
LLC PREFETCH  REQUESTED:          0  ISSUED:          0  USEFUL:       6475  USELESS:      20761
LLC AVERAGE MISS LATENCY: 170.971 cycles
Major fault: 0 Minor fault: 3092
CPU 0 L1I EPI prefetcher final stats
CPU 0 L1D next line prefetcher final stats

DRAM Statistics
 CHANNEL 0
 RQ ROW_BUFFER_HIT:      22594  ROW_BUFFER_MISS:      41312
 DBUS_CONGESTED:      42356
 WQ ROW_BUFFER_HIT:       9222  ROW_BUFFER_MISS:      27778  FULL:          0

 AVG_CONGESTED_CYCLE: 6

CPU 0 Branch Prediction Accuracy: 94.6086% MPKI: 10.2416 Average ROB Occupancy at Mispredict: 53.8875

Branch types
NOT_BRANCH: 40501603 81.0032%
BRANCH_DIRECT_JUMP: 517397 1.03479%
BRANCH_INDIRECT: 112347 0.224694%
BRANCH_CONDITIONAL: 6698736 13.3975%
BRANCH_DIRECT_CALL: 960974 1.92195%
BRANCH_INDIRECT_CALL: 123707 0.247414%
BRANCH_RETURN: 1084929 2.16986%
BRANCH_OTHER: 0 0%

