Initialize SIGNATURE TABLE
ST_SET: 1
ST_WAY: 256
ST_TAG_BIT: 16
ST_TAG_MASK: ffff

Initialize PATTERN TABLE
PT_SET: 512
PT_WAY: 4
SIG_DELTA_BIT: 7
C_SIG_BIT: 4
C_DELTA_BIT: 4

Initialize PREFETCH FILTER
FILTER_SET: 1024

*** ChampSim Multicore Out-of-Order Simulator ***

Warmup Instructions: 50000000
Simulation Instructions: 50000000
Number of CPUs: 1
LLC sets: 2048
LLC ways: 16
Off-chip DRAM Size: 4096 MB Channels: 1 Width: 64-bit Data Rate: 3200 MT/s

CPU 0 runs /home/xubinfang/Desktop/ChampSim/dpc3_traces/server_020.champsimtrace.xz
CPU 0 Bimodal branch predictor
CPU 0 EPI prefetcher
CPU 0 L1D next line prefetcher
Heartbeat CPU 0 instructions: 10000003 cycles: 3621347 heartbeat IPC: 2.7614 cumulative IPC: 2.7614 (Simulation time: 0 hr 0 min 28 sec) 
Heartbeat CPU 0 instructions: 20000002 cycles: 7246901 heartbeat IPC: 2.7582 cumulative IPC: 2.7598 (Simulation time: 0 hr 0 min 58 sec) 
Heartbeat CPU 0 instructions: 30000001 cycles: 10866293 heartbeat IPC: 2.76289 cumulative IPC: 2.76083 (Simulation time: 0 hr 1 min 30 sec) 
Heartbeat CPU 0 instructions: 40000002 cycles: 14486403 heartbeat IPC: 2.76235 cumulative IPC: 2.76121 (Simulation time: 0 hr 2 min 0 sec) 
Heartbeat CPU 0 instructions: 50000001 cycles: 18119735 heartbeat IPC: 2.75229 cumulative IPC: 2.75942 (Simulation time: 0 hr 2 min 28 sec) 

Warmup complete CPU 0 instructions: 50000001 cycles: 18119735 (Simulation time: 0 hr 2 min 28 sec) 

Heartbeat CPU 0 instructions: 60000000 cycles: 36047956 heartbeat IPC: 0.55778 cumulative IPC: 0.55778 (Simulation time: 0 hr 3 min 7 sec) 
Heartbeat CPU 0 instructions: 70000002 cycles: 53797538 heartbeat IPC: 0.563394 cumulative IPC: 0.560573 (Simulation time: 0 hr 3 min 45 sec) 
Heartbeat CPU 0 instructions: 80000002 cycles: 71606466 heartbeat IPC: 0.561516 cumulative IPC: 0.560887 (Simulation time: 0 hr 4 min 25 sec) 
Heartbeat CPU 0 instructions: 90000001 cycles: 89270893 heartbeat IPC: 0.566109 cumulative IPC: 0.562183 (Simulation time: 0 hr 5 min 4 sec) 
Heartbeat CPU 0 instructions: 100000002 cycles: 106963289 heartbeat IPC: 0.565215 cumulative IPC: 0.562787 (Simulation time: 0 hr 5 min 40 sec) 
Finished CPU 0 instructions: 50000001 cycles: 88843554 cumulative IPC: 0.562787 (Simulation time: 0 hr 5 min 40 sec) 

ChampSim completed all CPUs

Region of Interest Statistics

CPU 0 cumulative IPC: 0.562787 instructions: 50000001 cycles: 88843554
L1D TOTAL     ACCESS:   19321632  HIT:   17117345  MISS:    2204287
L1D LOAD      ACCESS:    7373647  HIT:    6654174  MISS:     719473
L1D RFO       ACCESS:    5811233  HIT:    4865022  MISS:     946211
L1D PREFETCH  ACCESS:    6136752  HIT:    5598149  MISS:     538603
L1D WRITEBACK ACCESS:          0  HIT:          0  MISS:          0
L1D PREFETCH  REQUESTED:    7418168  ISSUED:    7251586  USEFUL:     199018  USELESS:     339504
L1D AVERAGE MISS LATENCY: 172.979 cycles
L1I TOTAL     ACCESS:   30201059  HIT:   27727745  MISS:    2473314
L1I LOAD      ACCESS:    9594307  HIT:    9574599  MISS:      19708
L1I RFO       ACCESS:          0  HIT:          0  MISS:          0
L1I PREFETCH  ACCESS:   20606752  HIT:   18153146  MISS:    2453606
L1I WRITEBACK ACCESS:          0  HIT:          0  MISS:          0
L1I PREFETCH  REQUESTED:   24187317  ISSUED:   24187317  USEFUL:    2312638  USELESS:     140982
L1I AVERAGE MISS LATENCY: 19.0658 cycles
L2C TOTAL     ACCESS:    6926074  HIT:    5070667  MISS:    1855407
L2C LOAD      ACCESS:     507411  HIT:     244323  MISS:     263088
L2C RFO       ACCESS:     945550  HIT:      20139  MISS:     925411
L2C PREFETCH  ACCESS:    4309531  HIT:    3644950  MISS:     664581
L2C WRITEBACK ACCESS:    1163582  HIT:    1161255  MISS:       2327
L2C PREFETCH  REQUESTED:    4059717  ISSUED:    4053441  USEFUL:      23241  USELESS:     640200
L2C AVERAGE MISS LATENCY: 210.62 cycles
LLC TOTAL     ACCESS:    3968327  HIT:    2535097  MISS:    1433230
LLC LOAD      ACCESS:     262920  HIT:     163249  MISS:      99671
LLC RFO       ACCESS:     925373  HIT:     138416  MISS:     786957
LLC PREFETCH  ACCESS:    1682362  HIT:    1137704  MISS:     544658
LLC WRITEBACK ACCESS:    1097672  HIT:    1095728  MISS:       1944
LLC PREFETCH  REQUESTED:          0  ISSUED:          0  USEFUL:      30689  USELESS:     513827
LLC AVERAGE MISS LATENCY: 274.677 cycles
Major fault: 0 Minor fault: 22092
CPU 0 L1I EPI prefetcher final stats
CPU 0 L1D next line prefetcher final stats

DRAM Statistics
 CHANNEL 0
 RQ ROW_BUFFER_HIT:     407493  ROW_BUFFER_MISS:    1023545
 DBUS_CONGESTED:    1423151
 WQ ROW_BUFFER_HIT:     255418  ROW_BUFFER_MISS:     633508  FULL:          0

 AVG_CONGESTED_CYCLE: 6

CPU 0 Branch Prediction Accuracy: 96.3206% MPKI: 6.08594 Average ROB Occupancy at Mispredict: 101.862

Branch types
NOT_BRANCH: 41729407 83.4588%
BRANCH_DIRECT_JUMP: 458219 0.916438%
BRANCH_INDIRECT: 49088 0.098176%
BRANCH_CONDITIONAL: 5938517 11.877%
BRANCH_DIRECT_CALL: 745129 1.49026%
BRANCH_INDIRECT_CALL: 167106 0.334212%
BRANCH_RETURN: 912219 1.82444%
BRANCH_OTHER: 0 0%

