Initialize SIGNATURE TABLE
ST_SET: 1
ST_WAY: 256
ST_TAG_BIT: 16
ST_TAG_MASK: ffff

Initialize PATTERN TABLE
PT_SET: 512
PT_WAY: 4
SIG_DELTA_BIT: 7
C_SIG_BIT: 4
C_DELTA_BIT: 4

Initialize PREFETCH FILTER
FILTER_SET: 1024

*** ChampSim Multicore Out-of-Order Simulator ***

Warmup Instructions: 50000000
Simulation Instructions: 50000000
Number of CPUs: 1
LLC sets: 2048
LLC ways: 16
Off-chip DRAM Size: 4096 MB Channels: 1 Width: 64-bit Data Rate: 3200 MT/s

CPU 0 runs /home/xubinfang/Desktop/ChampSim/dpc3_traces/server_030.champsimtrace.xz
CPU 0 Bimodal branch predictor
CPU 0 EPI prefetcher
CPU 0 L1D next line prefetcher
Heartbeat CPU 0 instructions: 10000003 cycles: 3506906 heartbeat IPC: 2.85152 cumulative IPC: 2.85152 (Simulation time: 0 hr 0 min 36 sec) 
Heartbeat CPU 0 instructions: 20000003 cycles: 7013118 heartbeat IPC: 2.85208 cumulative IPC: 2.8518 (Simulation time: 0 hr 1 min 10 sec) 
Heartbeat CPU 0 instructions: 30000000 cycles: 10516824 heartbeat IPC: 2.85412 cumulative IPC: 2.85257 (Simulation time: 0 hr 1 min 47 sec) 
Heartbeat CPU 0 instructions: 40000002 cycles: 14022180 heartbeat IPC: 2.85278 cumulative IPC: 2.85262 (Simulation time: 0 hr 2 min 23 sec) 
Heartbeat CPU 0 instructions: 50000002 cycles: 17530845 heartbeat IPC: 2.85009 cumulative IPC: 2.85212 (Simulation time: 0 hr 2 min 59 sec) 

Warmup complete CPU 0 instructions: 50000002 cycles: 17530845 (Simulation time: 0 hr 2 min 59 sec) 

Heartbeat CPU 0 instructions: 60000000 cycles: 25907156 heartbeat IPC: 1.19384 cumulative IPC: 1.19384 (Simulation time: 0 hr 3 min 31 sec) 
Heartbeat CPU 0 instructions: 70000000 cycles: 34348080 heartbeat IPC: 1.1847 cumulative IPC: 1.18926 (Simulation time: 0 hr 4 min 4 sec) 
Heartbeat CPU 0 instructions: 80000001 cycles: 42670250 heartbeat IPC: 1.20161 cumulative IPC: 1.19335 (Simulation time: 0 hr 4 min 37 sec) 
*** Reached end of trace for Core: 0 Repeating trace: /home/xubinfang/Desktop/ChampSim/dpc3_traces/server_030.champsimtrace.xz
Heartbeat CPU 0 instructions: 90000002 cycles: 51088615 heartbeat IPC: 1.18788 cumulative IPC: 1.19197 (Simulation time: 0 hr 5 min 7 sec) 
Heartbeat CPU 0 instructions: 100000002 cycles: 59405152 heartbeat IPC: 1.20242 cumulative IPC: 1.19405 (Simulation time: 0 hr 5 min 37 sec) 
Finished CPU 0 instructions: 50000000 cycles: 41874307 cumulative IPC: 1.19405 (Simulation time: 0 hr 5 min 37 sec) 

ChampSim completed all CPUs

Region of Interest Statistics

CPU 0 cumulative IPC: 1.19405 instructions: 50000000 cycles: 41874307
L1D TOTAL     ACCESS:   20754625  HIT:   18675695  MISS:    2078930
L1D LOAD      ACCESS:    7533130  HIT:    6488629  MISS:    1044501
L1D RFO       ACCESS:    6205945  HIT:    5919526  MISS:     286419
L1D PREFETCH  ACCESS:    7015550  HIT:    6267540  MISS:     748010
L1D WRITEBACK ACCESS:          0  HIT:          0  MISS:          0
L1D PREFETCH  REQUESTED:    7589454  ISSUED:    7487287  USEFUL:     190874  USELESS:     557230
L1D AVERAGE MISS LATENCY: 18.3563 cycles
L1I TOTAL     ACCESS:   23850903  HIT:   20394376  MISS:    3456527
L1I LOAD      ACCESS:    9480882  HIT:    9215598  MISS:     265284
L1I RFO       ACCESS:          0  HIT:          0  MISS:          0
L1I PREFETCH  ACCESS:   14370021  HIT:   11178778  MISS:    3191243
L1I WRITEBACK ACCESS:          0  HIT:          0  MISS:          0
L1I PREFETCH  REQUESTED:   16449037  ISSUED:   16449037  USEFUL:    2717264  USELESS:     473988
L1I AVERAGE MISS LATENCY: 17.6272 cycles
L2C TOTAL     ACCESS:    7895886  HIT:    7263259  MISS:     632627
L2C LOAD      ACCESS:    1063453  HIT:     918009  MISS:     145444
L2C RFO       ACCESS:     283702  HIT:     222077  MISS:      61625
L2C PREFETCH  ACCESS:    5933245  HIT:    5510614  MISS:     422631
L2C WRITEBACK ACCESS:     615486  HIT:     612559  MISS:       2927
L2C PREFETCH  REQUESTED:    6468909  ISSUED:    6461682  USEFUL:      18243  USELESS:     403782
L2C AVERAGE MISS LATENCY: 34.5069 cycles
LLC TOTAL     ACCESS:    2300473  HIT:    2277401  MISS:      23072
LLC LOAD      ACCESS:     145310  HIT:     142347  MISS:       2963
LLC RFO       ACCESS:      61609  HIT:      59847  MISS:       1762
LLC PREFETCH  ACCESS:    1984560  HIT:    1966333  MISS:      18227
LLC WRITEBACK ACCESS:     108994  HIT:     108874  MISS:        120
LLC PREFETCH  REQUESTED:          0  ISSUED:          0  USEFUL:        882  USELESS:      16113
LLC AVERAGE MISS LATENCY: 147.92 cycles
Major fault: 0 Minor fault: 2040
CPU 0 L1I EPI prefetcher final stats
CPU 0 L1D next line prefetcher final stats

DRAM Statistics
 CHANNEL 0
 RQ ROW_BUFFER_HIT:       6850  ROW_BUFFER_MISS:      16102
 DBUS_CONGESTED:       6977
 WQ ROW_BUFFER_HIT:        168  ROW_BUFFER_MISS:       2504  FULL:          0

 AVG_CONGESTED_CYCLE: 5

CPU 0 Branch Prediction Accuracy: 92.4795% MPKI: 14.0962 Average ROB Occupancy at Mispredict: 60.0433

Branch types
NOT_BRANCH: 40627801 81.2556%
BRANCH_DIRECT_JUMP: 490940 0.98188%
BRANCH_INDIRECT: 175853 0.351706%
BRANCH_CONDITIONAL: 6321388 12.6428%
BRANCH_DIRECT_CALL: 1002065 2.00413%
BRANCH_INDIRECT_CALL: 189782 0.379564%
BRANCH_RETURN: 1191846 2.38369%
BRANCH_OTHER: 0 0%

