Initialize SIGNATURE TABLE
ST_SET: 1
ST_WAY: 256
ST_TAG_BIT: 16
ST_TAG_MASK: ffff

Initialize PATTERN TABLE
PT_SET: 512
PT_WAY: 4
SIG_DELTA_BIT: 7
C_SIG_BIT: 4
C_DELTA_BIT: 4

Initialize PREFETCH FILTER
FILTER_SET: 1024

*** ChampSim Multicore Out-of-Order Simulator ***

Warmup Instructions: 50000000
Simulation Instructions: 50000000
Number of CPUs: 1
LLC sets: 2048
LLC ways: 16
Off-chip DRAM Size: 4096 MB Channels: 1 Width: 64-bit Data Rate: 3200 MT/s

CPU 0 runs /home/xubinfang/Desktop/ChampSim/dpc3_traces/server_015.champsimtrace.xz
CPU 0 Bimodal branch predictor
CPU 0 EPI prefetcher
CPU 0 L1D next line prefetcher
Heartbeat CPU 0 instructions: 10000002 cycles: 3519408 heartbeat IPC: 2.84139 cumulative IPC: 2.84139 (Simulation time: 0 hr 0 min 31 sec) 
Heartbeat CPU 0 instructions: 20000001 cycles: 7107058 heartbeat IPC: 2.78734 cumulative IPC: 2.8141 (Simulation time: 0 hr 0 min 59 sec) 
Heartbeat CPU 0 instructions: 30000001 cycles: 10646029 heartbeat IPC: 2.82568 cumulative IPC: 2.81795 (Simulation time: 0 hr 1 min 32 sec) 
Heartbeat CPU 0 instructions: 40000002 cycles: 14194070 heartbeat IPC: 2.81846 cumulative IPC: 2.81808 (Simulation time: 0 hr 2 min 8 sec) 
Heartbeat CPU 0 instructions: 50000002 cycles: 17742329 heartbeat IPC: 2.81828 cumulative IPC: 2.81812 (Simulation time: 0 hr 2 min 41 sec) 

Warmup complete CPU 0 instructions: 50000002 cycles: 17742329 (Simulation time: 0 hr 2 min 41 sec) 

Heartbeat CPU 0 instructions: 60000002 cycles: 24346019 heartbeat IPC: 1.5143 cumulative IPC: 1.5143 (Simulation time: 0 hr 3 min 12 sec) 
Heartbeat CPU 0 instructions: 70000003 cycles: 30933601 heartbeat IPC: 1.51801 cumulative IPC: 1.51615 (Simulation time: 0 hr 3 min 42 sec) 
Heartbeat CPU 0 instructions: 80000000 cycles: 37521697 heartbeat IPC: 1.51789 cumulative IPC: 1.51673 (Simulation time: 0 hr 4 min 15 sec) 
Heartbeat CPU 0 instructions: 90000000 cycles: 44107081 heartbeat IPC: 1.51851 cumulative IPC: 1.51718 (Simulation time: 0 hr 4 min 45 sec) 
Heartbeat CPU 0 instructions: 100000002 cycles: 50689529 heartbeat IPC: 1.51919 cumulative IPC: 1.51758 (Simulation time: 0 hr 5 min 18 sec) 
Finished CPU 0 instructions: 50000000 cycles: 32947200 cumulative IPC: 1.51758 (Simulation time: 0 hr 5 min 18 sec) 

ChampSim completed all CPUs

Region of Interest Statistics

CPU 0 cumulative IPC: 1.51758 instructions: 50000000 cycles: 32947200
L1D TOTAL     ACCESS:   22367498  HIT:   22350181  MISS:      17317
L1D LOAD      ACCESS:    6952256  HIT:    6951721  MISS:        535
L1D RFO       ACCESS:    8569834  HIT:    8569738  MISS:         96
L1D PREFETCH  ACCESS:    6845408  HIT:    6828722  MISS:      16686
L1D WRITEBACK ACCESS:          0  HIT:          0  MISS:          0
L1D PREFETCH  REQUESTED:    6952325  ISSUED:    6850738  USEFUL:         83  USELESS:      16601
L1D AVERAGE MISS LATENCY: 16.1712 cycles
L1I TOTAL     ACCESS:   46851299  HIT:   44521239  MISS:    2330060
L1I LOAD      ACCESS:    9127469  HIT:    9088308  MISS:      39161
L1I RFO       ACCESS:          0  HIT:          0  MISS:          0
L1I PREFETCH  ACCESS:   37723830  HIT:   35432931  MISS:    2290899
L1I WRITEBACK ACCESS:          0  HIT:          0  MISS:          0
L1I PREFETCH  REQUESTED:   46912924  ISSUED:   46912924  USEFUL:    1839643  USELESS:     451278
L1I AVERAGE MISS LATENCY: 14.2536 cycles
L2C TOTAL     ACCESS:    3336191  HIT:    3335866  MISS:        325
L2C LOAD      ACCESS:      29856  HIT:      29794  MISS:         62
L2C RFO       ACCESS:         94  HIT:         92  MISS:          2
L2C PREFETCH  ACCESS:    3305891  HIT:    3305634  MISS:        257
L2C WRITEBACK ACCESS:        350  HIT:        346  MISS:          4
L2C PREFETCH  REQUESTED:    1814741  ISSUED:    1814722  USEFUL:         70  USELESS:        130
L2C AVERAGE MISS LATENCY: 105.68 cycles
LLC TOTAL     ACCESS:     179286  HIT:     178761  MISS:        525
LLC LOAD      ACCESS:         62  HIT:         46  MISS:         16
LLC RFO       ACCESS:          2  HIT:          0  MISS:          2
LLC PREFETCH  ACCESS:     179135  HIT:     178629  MISS:        506
LLC WRITEBACK ACCESS:         87  HIT:         86  MISS:          1
LLC PREFETCH  REQUESTED:          0  ISSUED:          0  USEFUL:          7  USELESS:        111
LLC AVERAGE MISS LATENCY: 316.368 cycles
Major fault: 0 Minor fault: 1888
CPU 0 L1I EPI prefetcher final stats
CPU 0 L1D next line prefetcher final stats

DRAM Statistics
 CHANNEL 0
 RQ ROW_BUFFER_HIT:        106  ROW_BUFFER_MISS:        418
 DBUS_CONGESTED:        338
 WQ ROW_BUFFER_HIT:         59  ROW_BUFFER_MISS:        304  FULL:          0

 AVG_CONGESTED_CYCLE: 6

CPU 0 Branch Prediction Accuracy: 97.5413% MPKI: 4.14372 Average ROB Occupancy at Mispredict: 103.155

Branch types
NOT_BRANCH: 41573035 83.1461%
BRANCH_DIRECT_JUMP: 436254 0.872508%
BRANCH_INDIRECT: 0 0%
BRANCH_CONDITIONAL: 5395885 10.7918%
BRANCH_DIRECT_CALL: 1173388 2.34678%
BRANCH_INDIRECT_CALL: 123910 0.24782%
BRANCH_RETURN: 1297308 2.59462%
BRANCH_OTHER: 0 0%

