Initialize SIGNATURE TABLE
ST_SET: 1
ST_WAY: 256
ST_TAG_BIT: 16
ST_TAG_MASK: ffff

Initialize PATTERN TABLE
PT_SET: 512
PT_WAY: 4
SIG_DELTA_BIT: 7
C_SIG_BIT: 4
C_DELTA_BIT: 4

Initialize PREFETCH FILTER
FILTER_SET: 1024

*** ChampSim Multicore Out-of-Order Simulator ***

Warmup Instructions: 50000000
Simulation Instructions: 50000000
Number of CPUs: 1
LLC sets: 2048
LLC ways: 16
Off-chip DRAM Size: 4096 MB Channels: 1 Width: 64-bit Data Rate: 3200 MT/s

CPU 0 runs /home/xubinfang/Desktop/ChampSim/dpc3_traces/server_029.champsimtrace.xz
CPU 0 Bimodal branch predictor
CPU 0 EPI prefetcher
CPU 0 L1D next line prefetcher
Heartbeat CPU 0 instructions: 10000001 cycles: 3491713 heartbeat IPC: 2.86392 cumulative IPC: 2.86392 (Simulation time: 0 hr 0 min 39 sec) 
Heartbeat CPU 0 instructions: 20000002 cycles: 6982902 heartbeat IPC: 2.86435 cumulative IPC: 2.86414 (Simulation time: 0 hr 1 min 12 sec) 
Heartbeat CPU 0 instructions: 30000003 cycles: 10476231 heartbeat IPC: 2.8626 cumulative IPC: 2.86363 (Simulation time: 0 hr 1 min 48 sec) 
Heartbeat CPU 0 instructions: 40000000 cycles: 13975663 heartbeat IPC: 2.85761 cumulative IPC: 2.86212 (Simulation time: 0 hr 2 min 18 sec) 
Heartbeat CPU 0 instructions: 50000000 cycles: 17472662 heartbeat IPC: 2.85959 cumulative IPC: 2.86161 (Simulation time: 0 hr 2 min 50 sec) 

Warmup complete CPU 0 instructions: 50000004 cycles: 17472663 (Simulation time: 0 hr 2 min 50 sec) 

Heartbeat CPU 0 instructions: 60000000 cycles: 26275850 heartbeat IPC: 1.13595 cumulative IPC: 1.13595 (Simulation time: 0 hr 3 min 21 sec) 
Heartbeat CPU 0 instructions: 70000003 cycles: 35249330 heartbeat IPC: 1.1144 cumulative IPC: 1.12507 (Simulation time: 0 hr 3 min 48 sec) 
Heartbeat CPU 0 instructions: 80000002 cycles: 44057843 heartbeat IPC: 1.13527 cumulative IPC: 1.12845 (Simulation time: 0 hr 4 min 18 sec) 
*** Reached end of trace for Core: 0 Repeating trace: /home/xubinfang/Desktop/ChampSim/dpc3_traces/server_029.champsimtrace.xz
Heartbeat CPU 0 instructions: 90000000 cycles: 52785459 heartbeat IPC: 1.14579 cumulative IPC: 1.13273 (Simulation time: 0 hr 4 min 50 sec) 
Heartbeat CPU 0 instructions: 100000003 cycles: 61538395 heartbeat IPC: 1.14247 cumulative IPC: 1.13467 (Simulation time: 0 hr 5 min 21 sec) 
Finished CPU 0 instructions: 50000003 cycles: 44065733 cumulative IPC: 1.13467 (Simulation time: 0 hr 5 min 21 sec) 

ChampSim completed all CPUs

Region of Interest Statistics

CPU 0 cumulative IPC: 1.13467 instructions: 50000003 cycles: 44065733
L1D TOTAL     ACCESS:   20645919  HIT:   18547878  MISS:    2098041
L1D LOAD      ACCESS:    7492344  HIT:    6433453  MISS:    1058891
L1D RFO       ACCESS:    6146899  HIT:    5861570  MISS:     285329
L1D PREFETCH  ACCESS:    7006676  HIT:    6252855  MISS:     753821
L1D WRITEBACK ACCESS:          0  HIT:          0  MISS:          0
L1D PREFETCH  REQUESTED:    7565389  ISSUED:    7490624  USEFUL:     183249  USELESS:     570565
L1D AVERAGE MISS LATENCY: 20.7413 cycles
L1I TOTAL     ACCESS:   23843145  HIT:   20448528  MISS:    3394617
L1I LOAD      ACCESS:    9482480  HIT:    9248504  MISS:     233976
L1I RFO       ACCESS:          0  HIT:          0  MISS:          0
L1I PREFETCH  ACCESS:   14360665  HIT:   11200024  MISS:    3160641
L1I WRITEBACK ACCESS:          0  HIT:          0  MISS:          0
L1I PREFETCH  REQUESTED:   16585597  ISSUED:   16585597  USEFUL:    2721914  USELESS:     438709
L1I AVERAGE MISS LATENCY: 17.9468 cycles
L2C TOTAL     ACCESS:    7811471  HIT:    7160604  MISS:     650867
L2C LOAD      ACCESS:    1057440  HIT:     908203  MISS:     149237
L2C RFO       ACCESS:     283626  HIT:     238445  MISS:      45181
L2C PREFETCH  ACCESS:    5859672  HIT:    5406734  MISS:     452938
L2C WRITEBACK ACCESS:     610733  HIT:     607222  MISS:       3511
L2C PREFETCH  REQUESTED:    6621766  ISSUED:    6611433  USEFUL:      14746  USELESS:     437662
L2C AVERAGE MISS LATENCY: 42.8227 cycles
LLC TOTAL     ACCESS:    2398481  HIT:    2320455  MISS:      78026
LLC LOAD      ACCESS:     149127  HIT:     131830  MISS:      17297
LLC RFO       ACCESS:      45177  HIT:      41519  MISS:       3658
LLC PREFETCH  ACCESS:    2108847  HIT:    2052402  MISS:      56445
LLC WRITEBACK ACCESS:      95330  HIT:      94704  MISS:        626
LLC PREFETCH  REQUESTED:          0  ISSUED:          0  USEFUL:       2710  USELESS:      54125
LLC AVERAGE MISS LATENCY: 157.883 cycles
Major fault: 0 Minor fault: 5919
CPU 0 L1I EPI prefetcher final stats
CPU 0 L1D next line prefetcher final stats

DRAM Statistics
 CHANNEL 0
 RQ ROW_BUFFER_HIT:      21937  ROW_BUFFER_MISS:      55453
 DBUS_CONGESTED:      29940
 WQ ROW_BUFFER_HIT:        523  ROW_BUFFER_MISS:       4145  FULL:          0

 AVG_CONGESTED_CYCLE: 4

CPU 0 Branch Prediction Accuracy: 92.2007% MPKI: 14.6831 Average ROB Occupancy at Mispredict: 62.7211

Branch types
NOT_BRANCH: 40586521 81.173%
BRANCH_DIRECT_JUMP: 525208 1.05042%
BRANCH_INDIRECT: 166358 0.332716%
BRANCH_CONDITIONAL: 6373075 12.7461%
BRANCH_DIRECT_CALL: 989260 1.97852%
BRANCH_INDIRECT_CALL: 184984 0.369968%
BRANCH_RETURN: 1174249 2.3485%
BRANCH_OTHER: 0 0%

