Initialize SIGNATURE TABLE
ST_SET: 1
ST_WAY: 256
ST_TAG_BIT: 16
ST_TAG_MASK: ffff

Initialize PATTERN TABLE
PT_SET: 512
PT_WAY: 4
SIG_DELTA_BIT: 7
C_SIG_BIT: 4
C_DELTA_BIT: 4

Initialize PREFETCH FILTER
FILTER_SET: 1024

*** ChampSim Multicore Out-of-Order Simulator ***

Warmup Instructions: 50000000
Simulation Instructions: 50000000
Number of CPUs: 1
LLC sets: 2048
LLC ways: 16
Off-chip DRAM Size: 4096 MB Channels: 1 Width: 64-bit Data Rate: 3200 MT/s

CPU 0 runs /home/xubinfang/Desktop/ChampSim/dpc3_traces/server_002.champsimtrace.xz
CPU 0 Bimodal branch predictor
CPU 0 EPI prefetcher
CPU 0 L1D next line prefetcher
Heartbeat CPU 0 instructions: 10000000 cycles: 3581200 heartbeat IPC: 2.79236 cumulative IPC: 2.79236 (Simulation time: 0 hr 0 min 43 sec) 
Heartbeat CPU 0 instructions: 20000002 cycles: 7170046 heartbeat IPC: 2.78641 cumulative IPC: 2.78938 (Simulation time: 0 hr 1 min 26 sec) 
Heartbeat CPU 0 instructions: 30000000 cycles: 10710796 heartbeat IPC: 2.82426 cumulative IPC: 2.80091 (Simulation time: 0 hr 2 min 11 sec) 
Heartbeat CPU 0 instructions: 40000000 cycles: 14261041 heartbeat IPC: 2.81671 cumulative IPC: 2.80484 (Simulation time: 0 hr 2 min 54 sec) 
Heartbeat CPU 0 instructions: 50000001 cycles: 17808812 heartbeat IPC: 2.81867 cumulative IPC: 2.8076 (Simulation time: 0 hr 3 min 37 sec) 

Warmup complete CPU 0 instructions: 50000001 cycles: 17808812 (Simulation time: 0 hr 3 min 37 sec) 

Heartbeat CPU 0 instructions: 60000000 cycles: 24506473 heartbeat IPC: 1.49306 cumulative IPC: 1.49306 (Simulation time: 0 hr 4 min 19 sec) 
Heartbeat CPU 0 instructions: 70000003 cycles: 31171229 heartbeat IPC: 1.50043 cumulative IPC: 1.49674 (Simulation time: 0 hr 5 min 2 sec) 
Heartbeat CPU 0 instructions: 80000003 cycles: 37842562 heartbeat IPC: 1.49895 cumulative IPC: 1.49747 (Simulation time: 0 hr 5 min 45 sec) 
Heartbeat CPU 0 instructions: 90000002 cycles: 44532499 heartbeat IPC: 1.49478 cumulative IPC: 1.4968 (Simulation time: 0 hr 6 min 29 sec) 
Heartbeat CPU 0 instructions: 100000003 cycles: 51220028 heartbeat IPC: 1.49532 cumulative IPC: 1.4965 (Simulation time: 0 hr 7 min 13 sec) 
Finished CPU 0 instructions: 50000002 cycles: 33411216 cumulative IPC: 1.4965 (Simulation time: 0 hr 7 min 13 sec) 

ChampSim completed all CPUs

Region of Interest Statistics

CPU 0 cumulative IPC: 1.4965 instructions: 50000002 cycles: 33411216
L1D TOTAL     ACCESS:   21918318  HIT:   21917511  MISS:        807
L1D LOAD      ACCESS:    6792587  HIT:    6792207  MISS:        380
L1D RFO       ACCESS:    8435751  HIT:    8435638  MISS:        113
L1D PREFETCH  ACCESS:    6689980  HIT:    6689666  MISS:        314
L1D WRITEBACK ACCESS:          0  HIT:          0  MISS:          0
L1D PREFETCH  REQUESTED:    6792639  ISSUED:    6697149  USEFUL:         86  USELESS:        229
L1D AVERAGE MISS LATENCY: 43.5985 cycles
L1I TOTAL     ACCESS:   34793671  HIT:   33337027  MISS:    1456644
L1I LOAD      ACCESS:    9279365  HIT:    9246450  MISS:      32915
L1I RFO       ACCESS:          0  HIT:          0  MISS:          0
L1I PREFETCH  ACCESS:   25514306  HIT:   24090577  MISS:    1423729
L1I WRITEBACK ACCESS:          0  HIT:          0  MISS:          0
L1I PREFETCH  REQUESTED:   30386093  ISSUED:   30386093  USEFUL:    1193306  USELESS:     230425
L1I AVERAGE MISS LATENCY: 14.0852 cycles
L2C TOTAL     ACCESS:    1895758  HIT:    1895449  MISS:        309
L2C LOAD      ACCESS:       6827  HIT:       6753  MISS:         74
L2C RFO       ACCESS:        112  HIT:        110  MISS:          2
L2C PREFETCH  ACCESS:    1888484  HIT:    1888255  MISS:        229
L2C WRITEBACK ACCESS:        335  HIT:        331  MISS:          4
L2C PREFETCH  REQUESTED:    1193642  ISSUED:    1193524  USEFUL:         65  USELESS:        138
L2C AVERAGE MISS LATENCY: 269.026 cycles
LLC TOTAL     ACCESS:     408058  HIT:     407052  MISS:       1006
LLC LOAD      ACCESS:         74  HIT:         61  MISS:         13
LLC RFO       ACCESS:          2  HIT:          1  MISS:          1
LLC PREFETCH  ACCESS:     407885  HIT:     406897  MISS:        988
LLC WRITEBACK ACCESS:         97  HIT:         93  MISS:          4
LLC PREFETCH  REQUESTED:          0  ISSUED:          0  USEFUL:         17  USELESS:        281
LLC AVERAGE MISS LATENCY: 819.806 cycles
Major fault: 0 Minor fault: 1867
CPU 0 L1I EPI prefetcher final stats
CPU 0 L1D next line prefetcher final stats

DRAM Statistics
 CHANNEL 0
 RQ ROW_BUFFER_HIT:        268  ROW_BUFFER_MISS:        734
 DBUS_CONGESTED:        829
 WQ ROW_BUFFER_HIT:         95  ROW_BUFFER_MISS:        547  FULL:          0

 AVG_CONGESTED_CYCLE: 6

CPU 0 Branch Prediction Accuracy: 97.3252% MPKI: 4.50402 Average ROB Occupancy at Mispredict: 99.0701

Branch types
NOT_BRANCH: 41580695 83.1614%
BRANCH_DIRECT_JUMP: 461630 0.92326%
BRANCH_INDIRECT: 0 0%
BRANCH_CONDITIONAL: 5376437 10.7529%
BRANCH_DIRECT_CALL: 1175775 2.35155%
BRANCH_INDIRECT_CALL: 114840 0.22968%
BRANCH_RETURN: 1290625 2.58125%
BRANCH_OTHER: 0 0%

