Initialize SIGNATURE TABLE
ST_SET: 1
ST_WAY: 256
ST_TAG_BIT: 16
ST_TAG_MASK: ffff

Initialize PATTERN TABLE
PT_SET: 512
PT_WAY: 4
SIG_DELTA_BIT: 7
C_SIG_BIT: 4
C_DELTA_BIT: 4

Initialize PREFETCH FILTER
FILTER_SET: 1024

*** ChampSim Multicore Out-of-Order Simulator ***

Warmup Instructions: 50000000
Simulation Instructions: 50000000
Number of CPUs: 1
LLC sets: 2048
LLC ways: 16
Off-chip DRAM Size: 4096 MB Channels: 1 Width: 64-bit Data Rate: 3200 MT/s

CPU 0 runs /home/xubinfang/Desktop/ChampSim/dpc3_traces/server_013.champsimtrace.xz
CPU 0 Bimodal branch predictor
CPU 0 EPI prefetcher
CPU 0 L1D next line prefetcher
Heartbeat CPU 0 instructions: 10000000 cycles: 3214387 heartbeat IPC: 3.11101 cumulative IPC: 3.11101 (Simulation time: 0 hr 0 min 27 sec) 
Heartbeat CPU 0 instructions: 20000001 cycles: 6418171 heartbeat IPC: 3.12131 cumulative IPC: 3.11615 (Simulation time: 0 hr 0 min 56 sec) 
Heartbeat CPU 0 instructions: 30000002 cycles: 9625517 heartbeat IPC: 3.11784 cumulative IPC: 3.11672 (Simulation time: 0 hr 1 min 27 sec) 
Heartbeat CPU 0 instructions: 40000002 cycles: 12828577 heartbeat IPC: 3.12201 cumulative IPC: 3.11804 (Simulation time: 0 hr 1 min 57 sec) 
Heartbeat CPU 0 instructions: 50000000 cycles: 16032360 heartbeat IPC: 3.12131 cumulative IPC: 3.11869 (Simulation time: 0 hr 2 min 26 sec) 

Warmup complete CPU 0 instructions: 50000004 cycles: 16032361 (Simulation time: 0 hr 2 min 26 sec) 

Heartbeat CPU 0 instructions: 60000002 cycles: 26476984 heartbeat IPC: 0.957431 cumulative IPC: 0.95743 (Simulation time: 0 hr 2 min 50 sec) 
Heartbeat CPU 0 instructions: 70000000 cycles: 37331309 heartbeat IPC: 0.921292 cumulative IPC: 0.939013 (Simulation time: 0 hr 3 min 15 sec) 
Heartbeat CPU 0 instructions: 80000001 cycles: 47522150 heartbeat IPC: 0.981273 cumulative IPC: 0.95269 (Simulation time: 0 hr 3 min 43 sec) 
Heartbeat CPU 0 instructions: 90000003 cycles: 57891110 heartbeat IPC: 0.964417 cumulative IPC: 0.955595 (Simulation time: 0 hr 4 min 8 sec) 
Heartbeat CPU 0 instructions: 100000003 cycles: 68337975 heartbeat IPC: 0.957225 cumulative IPC: 0.95592 (Simulation time: 0 hr 4 min 34 sec) 
Finished CPU 0 instructions: 50000003 cycles: 52305615 cumulative IPC: 0.95592 (Simulation time: 0 hr 4 min 34 sec) 

ChampSim completed all CPUs

Region of Interest Statistics

CPU 0 cumulative IPC: 0.95592 instructions: 50000003 cycles: 52305615
L1D TOTAL     ACCESS:   18482320  HIT:   17414279  MISS:    1068041
L1D LOAD      ACCESS:    6869425  HIT:    6378504  MISS:     490921
L1D RFO       ACCESS:    4972971  HIT:    4892478  MISS:      80493
L1D PREFETCH  ACCESS:    6639924  HIT:    6143297  MISS:     496627
L1D WRITEBACK ACCESS:          0  HIT:          0  MISS:          0
L1D PREFETCH  REQUESTED:    6909679  ISSUED:    6806174  USEFUL:     144286  USELESS:     352351
L1D AVERAGE MISS LATENCY: 40.7895 cycles
L1I TOTAL     ACCESS:   22834148  HIT:   21099594  MISS:    1734554
L1I LOAD      ACCESS:    8642714  HIT:    8135616  MISS:     507098
L1I RFO       ACCESS:          0  HIT:          0  MISS:          0
L1I PREFETCH  ACCESS:   14191434  HIT:   12963978  MISS:    1227456
L1I WRITEBACK ACCESS:          0  HIT:          0  MISS:          0
L1I PREFETCH  REQUESTED:   15812108  ISSUED:   15812108  USEFUL:     917912  USELESS:     309494
L1I AVERAGE MISS LATENCY: 29.8779 cycles
L2C TOTAL     ACCESS:    3699070  HIT:    2391850  MISS:    1307220
L2C LOAD      ACCESS:     917076  HIT:     348334  MISS:     568742
L2C RFO       ACCESS:      79036  HIT:      31426  MISS:      47610
L2C PREFETCH  ACCESS:    2427037  HIT:    1737660  MISS:     689377
L2C WRITEBACK ACCESS:     275921  HIT:     274430  MISS:       1491
L2C PREFETCH  REQUESTED:    3732074  ISSUED:    3729039  USEFUL:      62569  USELESS:     626504
L2C AVERAGE MISS LATENCY: 43.2151 cycles
LLC TOTAL     ACCESS:    2824888  HIT:    2638442  MISS:     186446
LLC LOAD      ACCESS:     557386  HIT:     518756  MISS:      38630
LLC RFO       ACCESS:      47604  HIT:      37480  MISS:      10124
LLC PREFETCH  ACCESS:    2048235  HIT:    1910987  MISS:     137248
LLC WRITEBACK ACCESS:     171663  HIT:     171219  MISS:        444
LLC PREFETCH  REQUESTED:          0  ISSUED:          0  USEFUL:      25350  USELESS:     111404
LLC AVERAGE MISS LATENCY: 162.718 cycles
Major fault: 0 Minor fault: 6202
CPU 0 L1I EPI prefetcher final stats
CPU 0 L1D next line prefetcher final stats

DRAM Statistics
 CHANNEL 0
 RQ ROW_BUFFER_HIT:      31775  ROW_BUFFER_MISS:     154222
 DBUS_CONGESTED:      74508
 WQ ROW_BUFFER_HIT:      11444  ROW_BUFFER_MISS:      53664  FULL:          0

 AVG_CONGESTED_CYCLE: 5

CPU 0 Branch Prediction Accuracy: 92.974% MPKI: 13.0495 Average ROB Occupancy at Mispredict: 42.5063

Branch types
NOT_BRANCH: 40713049 81.4261%
BRANCH_DIRECT_JUMP: 463697 0.927394%
BRANCH_INDIRECT: 146542 0.293084%
BRANCH_CONDITIONAL: 6981921 13.9638%
BRANCH_DIRECT_CALL: 665003 1.33001%
BRANCH_INDIRECT_CALL: 165150 0.3303%
BRANCH_RETURN: 864309 1.72862%
BRANCH_OTHER: 0 0%

