Initialize SIGNATURE TABLE
ST_SET: 1
ST_WAY: 256
ST_TAG_BIT: 16
ST_TAG_MASK: ffff

Initialize PATTERN TABLE
PT_SET: 512
PT_WAY: 4
SIG_DELTA_BIT: 7
C_SIG_BIT: 4
C_DELTA_BIT: 4

Initialize PREFETCH FILTER
FILTER_SET: 1024

*** ChampSim Multicore Out-of-Order Simulator ***

Warmup Instructions: 50000000
Simulation Instructions: 50000000
Number of CPUs: 1
LLC sets: 2048
LLC ways: 16
Off-chip DRAM Size: 4096 MB Channels: 1 Width: 64-bit Data Rate: 3200 MT/s

CPU 0 runs /home/xubinfang/Desktop/ChampSim/dpc3_traces/server_036.champsimtrace.xz
CPU 0 Bimodal branch predictor
CPU 0 EPI prefetcher
CPU 0 L1D next line prefetcher
Heartbeat CPU 0 instructions: 10000000 cycles: 3459003 heartbeat IPC: 2.89101 cumulative IPC: 2.89101 (Simulation time: 0 hr 0 min 33 sec) 
Heartbeat CPU 0 instructions: 20000000 cycles: 6924792 heartbeat IPC: 2.88535 cumulative IPC: 2.88817 (Simulation time: 0 hr 1 min 7 sec) 
Heartbeat CPU 0 instructions: 30000003 cycles: 10432878 heartbeat IPC: 2.85056 cumulative IPC: 2.87553 (Simulation time: 0 hr 1 min 44 sec) 
Heartbeat CPU 0 instructions: 40000000 cycles: 13895382 heartbeat IPC: 2.88808 cumulative IPC: 2.87865 (Simulation time: 0 hr 2 min 21 sec) 
Heartbeat CPU 0 instructions: 50000002 cycles: 17357082 heartbeat IPC: 2.88875 cumulative IPC: 2.88067 (Simulation time: 0 hr 2 min 59 sec) 

Warmup complete CPU 0 instructions: 50000002 cycles: 17357082 (Simulation time: 0 hr 2 min 59 sec) 

Heartbeat CPU 0 instructions: 60000003 cycles: 23573922 heartbeat IPC: 1.60853 cumulative IPC: 1.60853 (Simulation time: 0 hr 3 min 31 sec) 
Heartbeat CPU 0 instructions: 70000001 cycles: 29714494 heartbeat IPC: 1.62851 cumulative IPC: 1.61846 (Simulation time: 0 hr 4 min 1 sec) 
Heartbeat CPU 0 instructions: 80000001 cycles: 35877391 heartbeat IPC: 1.62261 cumulative IPC: 1.61984 (Simulation time: 0 hr 4 min 34 sec) 
Heartbeat CPU 0 instructions: 90000002 cycles: 42024438 heartbeat IPC: 1.6268 cumulative IPC: 1.62158 (Simulation time: 0 hr 5 min 4 sec) 
Heartbeat CPU 0 instructions: 100000001 cycles: 48168998 heartbeat IPC: 1.62746 cumulative IPC: 1.62275 (Simulation time: 0 hr 5 min 34 sec) 
Finished CPU 0 instructions: 50000003 cycles: 30811917 cumulative IPC: 1.62275 (Simulation time: 0 hr 5 min 34 sec) 

ChampSim completed all CPUs

Region of Interest Statistics

CPU 0 cumulative IPC: 1.62275 instructions: 50000003 cycles: 30811917
L1D TOTAL     ACCESS:   21725941  HIT:   21665473  MISS:      60468
L1D LOAD      ACCESS:    7260645  HIT:    7225652  MISS:      34993
L1D RFO       ACCESS:    7372504  HIT:    7365240  MISS:       7264
L1D PREFETCH  ACCESS:    7092792  HIT:    7074581  MISS:      18211
L1D WRITEBACK ACCESS:          0  HIT:          0  MISS:          0
L1D PREFETCH  REQUESTED:    7261658  ISSUED:    7121324  USEFUL:       5467  USELESS:      12745
L1D AVERAGE MISS LATENCY: 17.4722 cycles
L1I TOTAL     ACCESS:   40757486  HIT:   36797411  MISS:    3960075
L1I LOAD      ACCESS:    8928690  HIT:    8893864  MISS:      34826
L1I RFO       ACCESS:          0  HIT:          0  MISS:          0
L1I PREFETCH  ACCESS:   31828796  HIT:   27903547  MISS:    3925249
L1I WRITEBACK ACCESS:          0  HIT:          0  MISS:          0
L1I PREFETCH  REQUESTED:   37669256  ISSUED:   37669256  USEFUL:    3583739  USELESS:     341543
L1I AVERAGE MISS LATENCY: 14.7055 cycles
L2C TOTAL     ACCESS:    6325002  HIT:    6322517  MISS:       2485
L2C LOAD      ACCESS:      52691  HIT:      51939  MISS:        752
L2C RFO       ACCESS:       7258  HIT:       7204  MISS:         54
L2C PREFETCH  ACCESS:    6249416  HIT:    6247769  MISS:       1647
L2C WRITEBACK ACCESS:      15637  HIT:      15605  MISS:         32
L2C PREFETCH  REQUESTED:    5359394  ISSUED:    5355846  USEFUL:        192  USELESS:       1060
L2C AVERAGE MISS LATENCY: 129.107 cycles
LLC TOTAL     ACCESS:     551169  HIT:     548234  MISS:       2935
LLC LOAD      ACCESS:        746  HIT:        264  MISS:        482
LLC RFO       ACCESS:         54  HIT:         20  MISS:         34
LLC PREFETCH  ACCESS:     549296  HIT:     546880  MISS:       2416
LLC WRITEBACK ACCESS:       1073  HIT:       1070  MISS:          3
LLC PREFETCH  REQUESTED:          0  ISSUED:          0  USEFUL:        191  USELESS:        677
LLC AVERAGE MISS LATENCY: 234.628 cycles
Major fault: 0 Minor fault: 1927
CPU 0 L1I EPI prefetcher final stats
CPU 0 L1D next line prefetcher final stats

DRAM Statistics
 CHANNEL 0
 RQ ROW_BUFFER_HIT:        635  ROW_BUFFER_MISS:       2297
 DBUS_CONGESTED:       1872
 WQ ROW_BUFFER_HIT:        412  ROW_BUFFER_MISS:       1515  FULL:          0

 AVG_CONGESTED_CYCLE: 6

CPU 0 Branch Prediction Accuracy: 96.3055% MPKI: 6.09676 Average ROB Occupancy at Mispredict: 64.7699

Branch types
NOT_BRANCH: 41748427 83.4968%
BRANCH_DIRECT_JUMP: 468564 0.937128%
BRANCH_INDIRECT: 0 0%
BRANCH_CONDITIONAL: 5599749 11.1995%
BRANCH_DIRECT_CALL: 885105 1.77021%
BRANCH_INDIRECT_CALL: 206338 0.412676%
BRANCH_RETURN: 1091468 2.18294%
BRANCH_OTHER: 0 0%

