Initialize SIGNATURE TABLE
ST_SET: 1
ST_WAY: 256
ST_TAG_BIT: 16
ST_TAG_MASK: ffff

Initialize PATTERN TABLE
PT_SET: 512
PT_WAY: 4
SIG_DELTA_BIT: 7
C_SIG_BIT: 4
C_DELTA_BIT: 4

Initialize PREFETCH FILTER
FILTER_SET: 1024

*** ChampSim Multicore Out-of-Order Simulator ***

Warmup Instructions: 50000000
Simulation Instructions: 50000000
Number of CPUs: 1
LLC sets: 2048
LLC ways: 16
Off-chip DRAM Size: 4096 MB Channels: 1 Width: 64-bit Data Rate: 3200 MT/s

CPU 0 runs /home/xubinfang/Desktop/ChampSim/dpc3_traces/server_037.champsimtrace.xz
CPU 0 Bimodal branch predictor
CPU 0 EPI prefetcher
CPU 0 L1D next line prefetcher
Heartbeat CPU 0 instructions: 10000001 cycles: 3319025 heartbeat IPC: 3.01293 cumulative IPC: 3.01293 (Simulation time: 0 hr 0 min 35 sec) 
Heartbeat CPU 0 instructions: 20000002 cycles: 6635504 heartbeat IPC: 3.01525 cumulative IPC: 3.01409 (Simulation time: 0 hr 1 min 9 sec) 
Heartbeat CPU 0 instructions: 30000003 cycles: 10000051 heartbeat IPC: 2.97217 cumulative IPC: 2.99998 (Simulation time: 0 hr 1 min 42 sec) 
Heartbeat CPU 0 instructions: 40000000 cycles: 13318717 heartbeat IPC: 3.01326 cumulative IPC: 3.00329 (Simulation time: 0 hr 2 min 17 sec) 
Heartbeat CPU 0 instructions: 50000003 cycles: 16636836 heartbeat IPC: 3.01376 cumulative IPC: 3.00538 (Simulation time: 0 hr 2 min 55 sec) 

Warmup complete CPU 0 instructions: 50000003 cycles: 16636836 (Simulation time: 0 hr 2 min 55 sec) 

Heartbeat CPU 0 instructions: 60000001 cycles: 23506414 heartbeat IPC: 1.45569 cumulative IPC: 1.45569 (Simulation time: 0 hr 3 min 27 sec) 
Heartbeat CPU 0 instructions: 70000000 cycles: 30491590 heartbeat IPC: 1.4316 cumulative IPC: 1.44355 (Simulation time: 0 hr 4 min 0 sec) 
Heartbeat CPU 0 instructions: 80000000 cycles: 37360767 heartbeat IPC: 1.45578 cumulative IPC: 1.4476 (Simulation time: 0 hr 4 min 34 sec) 
Heartbeat CPU 0 instructions: 90000002 cycles: 44244320 heartbeat IPC: 1.45274 cumulative IPC: 1.44888 (Simulation time: 0 hr 5 min 8 sec) 
*** Reached end of trace for Core: 0 Repeating trace: /home/xubinfang/Desktop/ChampSim/dpc3_traces/server_037.champsimtrace.xz
Heartbeat CPU 0 instructions: 100000000 cycles: 51147987 heartbeat IPC: 1.44851 cumulative IPC: 1.44881 (Simulation time: 0 hr 5 min 42 sec) 
Finished CPU 0 instructions: 50000001 cycles: 34511152 cumulative IPC: 1.44881 (Simulation time: 0 hr 5 min 42 sec) 

ChampSim completed all CPUs

Region of Interest Statistics

CPU 0 cumulative IPC: 1.44881 instructions: 50000001 cycles: 34511152
L1D TOTAL     ACCESS:   19679947  HIT:   18700690  MISS:     979257
L1D LOAD      ACCESS:    6827642  HIT:    6337294  MISS:     490348
L1D RFO       ACCESS:    6216660  HIT:    6151828  MISS:      64832
L1D PREFETCH  ACCESS:    6635645  HIT:    6211568  MISS:     424077
L1D WRITEBACK ACCESS:          0  HIT:          0  MISS:          0
L1D PREFETCH  REQUESTED:    6866646  ISSUED:    6752314  USEFUL:     118454  USELESS:     305628
L1D AVERAGE MISS LATENCY: 28.7671 cycles
L1I TOTAL     ACCESS:   29176026  HIT:   24783716  MISS:    4392310
L1I LOAD      ACCESS:    9251860  HIT:    9228505  MISS:      23355
L1I RFO       ACCESS:          0  HIT:          0  MISS:          0
L1I PREFETCH  ACCESS:   19924166  HIT:   15555211  MISS:    4368955
L1I WRITEBACK ACCESS:          0  HIT:          0  MISS:          0
L1I PREFETCH  REQUESTED:   23008194  ISSUED:   23008194  USEFUL:    4023075  USELESS:     345907
L1I AVERAGE MISS LATENCY: 15.0721 cycles
L2C TOTAL     ACCESS:    8014585  HIT:    7702995  MISS:     311590
L2C LOAD      ACCESS:     498097  HIT:     360457  MISS:     137640
L2C RFO       ACCESS:      64526  HIT:      37173  MISS:      27353
L2C PREFETCH  ACCESS:    7162390  HIT:    7016634  MISS:     145756
L2C WRITEBACK ACCESS:     289572  HIT:     288731  MISS:        841
L2C PREFETCH  REQUESTED:    6809527  ISSUED:    6800847  USEFUL:       7183  USELESS:     138348
L2C AVERAGE MISS LATENCY: 45.5313 cycles
LLC TOTAL     ACCESS:    1447630  HIT:    1395304  MISS:      52326
LLC LOAD      ACCESS:     137577  HIT:     124473  MISS:      13104
LLC RFO       ACCESS:      27353  HIT:      22570  MISS:       4783
LLC PREFETCH  ACCESS:    1145472  HIT:    1111586  MISS:      33886
LLC WRITEBACK ACCESS:     137228  HIT:     136675  MISS:        553
LLC PREFETCH  REQUESTED:          0  ISSUED:          0  USEFUL:       3597  USELESS:      31603
LLC AVERAGE MISS LATENCY: 163.139 cycles
Major fault: 0 Minor fault: 5653
CPU 0 L1I EPI prefetcher final stats
CPU 0 L1D next line prefetcher final stats

DRAM Statistics
 CHANNEL 0
 RQ ROW_BUFFER_HIT:       8926  ROW_BUFFER_MISS:      42846
 DBUS_CONGESTED:      20549
 WQ ROW_BUFFER_HIT:       1268  ROW_BUFFER_MISS:       9852  FULL:          0

 AVG_CONGESTED_CYCLE: 4

CPU 0 Branch Prediction Accuracy: 96.3054% MPKI: 6.64902 Average ROB Occupancy at Mispredict: 89.4455

Branch types
NOT_BRANCH: 41001512 82.003%
BRANCH_DIRECT_JUMP: 541939 1.08388%
BRANCH_INDIRECT: 59716 0.119432%
BRANCH_CONDITIONAL: 5916835 11.8337%
BRANCH_DIRECT_CALL: 1005457 2.01091%
BRANCH_INDIRECT_CALL: 234433 0.468866%
BRANCH_RETURN: 1239864 2.47973%
BRANCH_OTHER: 0 0%

