Initialize SIGNATURE TABLE
ST_SET: 1
ST_WAY: 256
ST_TAG_BIT: 16
ST_TAG_MASK: ffff

Initialize PATTERN TABLE
PT_SET: 512
PT_WAY: 4
SIG_DELTA_BIT: 7
C_SIG_BIT: 4
C_DELTA_BIT: 4

Initialize PREFETCH FILTER
FILTER_SET: 1024

*** ChampSim Multicore Out-of-Order Simulator ***

Warmup Instructions: 50000000
Simulation Instructions: 50000000
Number of CPUs: 1
LLC sets: 2048
LLC ways: 16
Off-chip DRAM Size: 4096 MB Channels: 1 Width: 64-bit Data Rate: 3200 MT/s

CPU 0 runs /home/xubinfang/Desktop/ChampSim/dpc3_traces/server_026.champsimtrace.xz
CPU 0 Bimodal branch predictor
CPU 0 EPI prefetcher
CPU 0 L1D next line prefetcher
Heartbeat CPU 0 instructions: 10000000 cycles: 3525759 heartbeat IPC: 2.83627 cumulative IPC: 2.83627 (Simulation time: 0 hr 0 min 30 sec) 
Heartbeat CPU 0 instructions: 20000002 cycles: 7057321 heartbeat IPC: 2.83161 cumulative IPC: 2.83394 (Simulation time: 0 hr 1 min 2 sec) 
Heartbeat CPU 0 instructions: 30000000 cycles: 10578278 heartbeat IPC: 2.84014 cumulative IPC: 2.836 (Simulation time: 0 hr 1 min 33 sec) 
Heartbeat CPU 0 instructions: 40000003 cycles: 14107497 heartbeat IPC: 2.83349 cumulative IPC: 2.83537 (Simulation time: 0 hr 2 min 2 sec) 
Heartbeat CPU 0 instructions: 50000000 cycles: 17629231 heartbeat IPC: 2.83951 cumulative IPC: 2.8362 (Simulation time: 0 hr 2 min 33 sec) 

Warmup complete CPU 0 instructions: 50000004 cycles: 17629232 (Simulation time: 0 hr 2 min 33 sec) 

*** Reached end of trace for Core: 0 Repeating trace: /home/xubinfang/Desktop/ChampSim/dpc3_traces/server_026.champsimtrace.xz
Heartbeat CPU 0 instructions: 60000000 cycles: 26426304 heartbeat IPC: 1.13674 cumulative IPC: 1.13674 (Simulation time: 0 hr 3 min 3 sec) 
Heartbeat CPU 0 instructions: 70000003 cycles: 35092574 heartbeat IPC: 1.1539 cumulative IPC: 1.14526 (Simulation time: 0 hr 3 min 31 sec) 
Heartbeat CPU 0 instructions: 80000003 cycles: 43871062 heartbeat IPC: 1.13915 cumulative IPC: 1.14321 (Simulation time: 0 hr 3 min 57 sec) 
Heartbeat CPU 0 instructions: 90000002 cycles: 52573429 heartbeat IPC: 1.14911 cumulative IPC: 1.14468 (Simulation time: 0 hr 4 min 23 sec) 
Heartbeat CPU 0 instructions: 100000000 cycles: 61315377 heartbeat IPC: 1.14391 cumulative IPC: 1.14453 (Simulation time: 0 hr 4 min 54 sec) 
Finished CPU 0 instructions: 50000000 cycles: 43686146 cumulative IPC: 1.14453 (Simulation time: 0 hr 4 min 54 sec) 

ChampSim completed all CPUs

Region of Interest Statistics

CPU 0 cumulative IPC: 1.14453 instructions: 50000000 cycles: 43686146
L1D TOTAL     ACCESS:   21651746  HIT:   20004652  MISS:    1647094
L1D LOAD      ACCESS:    7841043  HIT:    7119140  MISS:     721903
L1D RFO       ACCESS:    6286612  HIT:    5998838  MISS:     287774
L1D PREFETCH  ACCESS:    7524091  HIT:    6886674  MISS:     637417
L1D WRITEBACK ACCESS:          0  HIT:          0  MISS:          0
L1D PREFETCH  REQUESTED:    7892352  ISSUED:    7769595  USEFUL:     158515  USELESS:     478913
L1D AVERAGE MISS LATENCY: 23.4342 cycles
L1I TOTAL     ACCESS:   23218905  HIT:   19857721  MISS:    3361184
L1I LOAD      ACCESS:    9238390  HIT:    8774013  MISS:     464377
L1I RFO       ACCESS:          0  HIT:          0  MISS:          0
L1I PREFETCH  ACCESS:   13980515  HIT:   11083708  MISS:    2896807
L1I WRITEBACK ACCESS:          0  HIT:          0  MISS:          0
L1I PREFETCH  REQUESTED:   16193850  ISSUED:   16193850  USEFUL:    2335052  USELESS:     561794
L1I AVERAGE MISS LATENCY: 18.0839 cycles
L2C TOTAL     ACCESS:    6947175  HIT:    6179980  MISS:     767195
L2C LOAD      ACCESS:    1031955  HIT:     828562  MISS:     203393
L2C RFO       ACCESS:     285085  HIT:     188877  MISS:      96208
L2C PREFETCH  ACCESS:    5068963  HIT:    4605021  MISS:     463942
L2C WRITEBACK ACCESS:     561172  HIT:     557520  MISS:       3652
L2C PREFETCH  REQUESTED:    5377724  ISSUED:    5375034  USEFUL:      30465  USELESS:     432791
L2C AVERAGE MISS LATENCY: 38.4006 cycles
LLC TOTAL     ACCESS:    2391617  HIT:    2356202  MISS:      35415
LLC LOAD      ACCESS:     203232  HIT:     199355  MISS:       3877
LLC RFO       ACCESS:      96206  HIT:      81631  MISS:      14575
LLC PREFETCH  ACCESS:    1930428  HIT:    1913682  MISS:      16746
LLC WRITEBACK ACCESS:     161751  HIT:     161534  MISS:        217
LLC PREFETCH  REQUESTED:          0  ISSUED:          0  USEFUL:       1213  USELESS:      15938
LLC AVERAGE MISS LATENCY: 184.431 cycles
Major fault: 0 Minor fault: 2166
CPU 0 L1I EPI prefetcher final stats
CPU 0 L1D next line prefetcher final stats

DRAM Statistics
 CHANNEL 0
 RQ ROW_BUFFER_HIT:      12663  ROW_BUFFER_MISS:      22530
 DBUS_CONGESTED:      23275
 WQ ROW_BUFFER_HIT:       1540  ROW_BUFFER_MISS:      14147  FULL:          0

 AVG_CONGESTED_CYCLE: 6

CPU 0 Branch Prediction Accuracy: 91.6197% MPKI: 15.3382 Average ROB Occupancy at Mispredict: 52.4698

Branch types
NOT_BRANCH: 40848500 81.697%
BRANCH_DIRECT_JUMP: 522044 1.04409%
BRANCH_INDIRECT: 204034 0.408068%
BRANCH_CONDITIONAL: 6212951 12.4259%
BRANCH_DIRECT_CALL: 932388 1.86478%
BRANCH_INDIRECT_CALL: 173763 0.347526%
BRANCH_RETURN: 1106146 2.21229%
BRANCH_OTHER: 0 0%

