Initialize SIGNATURE TABLE
ST_SET: 1
ST_WAY: 256
ST_TAG_BIT: 16
ST_TAG_MASK: ffff

Initialize PATTERN TABLE
PT_SET: 512
PT_WAY: 4
SIG_DELTA_BIT: 7
C_SIG_BIT: 4
C_DELTA_BIT: 4

Initialize PREFETCH FILTER
FILTER_SET: 1024

*** ChampSim Multicore Out-of-Order Simulator ***

Warmup Instructions: 50000000
Simulation Instructions: 50000000
Number of CPUs: 1
LLC sets: 2048
LLC ways: 16
Off-chip DRAM Size: 4096 MB Channels: 1 Width: 64-bit Data Rate: 3200 MT/s

CPU 0 runs /home/xubinfang/Desktop/ChampSim/dpc3_traces/server_009.champsimtrace.xz
CPU 0 Bimodal branch predictor
CPU 0 EPI prefetcher
CPU 0 L1D next line prefetcher
Heartbeat CPU 0 instructions: 10000003 cycles: 3199391 heartbeat IPC: 3.1256 cumulative IPC: 3.1256 (Simulation time: 0 hr 0 min 31 sec) 
Heartbeat CPU 0 instructions: 20000001 cycles: 6391963 heartbeat IPC: 3.13227 cumulative IPC: 3.12893 (Simulation time: 0 hr 1 min 3 sec) 
Heartbeat CPU 0 instructions: 30000002 cycles: 9599151 heartbeat IPC: 3.118 cumulative IPC: 3.12528 (Simulation time: 0 hr 1 min 34 sec) 
Heartbeat CPU 0 instructions: 40000003 cycles: 12802827 heartbeat IPC: 3.12141 cumulative IPC: 3.12431 (Simulation time: 0 hr 2 min 4 sec) 
Heartbeat CPU 0 instructions: 50000000 cycles: 16062891 heartbeat IPC: 3.06742 cumulative IPC: 3.11276 (Simulation time: 0 hr 2 min 32 sec) 

Warmup complete CPU 0 instructions: 50000004 cycles: 16062892 (Simulation time: 0 hr 2 min 32 sec) 

Heartbeat CPU 0 instructions: 60000001 cycles: 33772794 heartbeat IPC: 0.564656 cumulative IPC: 0.564656 (Simulation time: 0 hr 3 min 7 sec) 
Heartbeat CPU 0 instructions: 70000003 cycles: 55941263 heartbeat IPC: 0.451091 cumulative IPC: 0.501525 (Simulation time: 0 hr 3 min 47 sec) 
Heartbeat CPU 0 instructions: 80000000 cycles: 65942175 heartbeat IPC: 0.999909 cumulative IPC: 0.601452 (Simulation time: 0 hr 4 min 12 sec) 
Heartbeat CPU 0 instructions: 90000001 cycles: 76017793 heartbeat IPC: 0.992495 cumulative IPC: 0.667168 (Simulation time: 0 hr 4 min 37 sec) 
Heartbeat CPU 0 instructions: 100000001 cycles: 86104592 heartbeat IPC: 0.991395 cumulative IPC: 0.71386 (Simulation time: 0 hr 5 min 4 sec) 
Finished CPU 0 instructions: 50000000 cycles: 70041701 cumulative IPC: 0.71386 (Simulation time: 0 hr 5 min 4 sec) 

ChampSim completed all CPUs

Region of Interest Statistics

CPU 0 cumulative IPC: 0.71386 instructions: 50000000 cycles: 70041701
L1D TOTAL     ACCESS:   22579757  HIT:   17999008  MISS:    4580749
L1D LOAD      ACCESS:    9083632  HIT:    6811509  MISS:    2272123
L1D RFO       ACCESS:    4613948  HIT:    4509100  MISS:     104848
L1D PREFETCH  ACCESS:    8882177  HIT:    6678399  MISS:    2203778
L1D WRITEBACK ACCESS:          0  HIT:          0  MISS:          0
L1D PREFETCH  REQUESTED:    9117628  ISSUED:    9016878  USEFUL:     114399  USELESS:    2089378
L1D AVERAGE MISS LATENCY: 19.9981 cycles
L1I TOTAL     ACCESS:   28030590  HIT:   26711600  MISS:    1318990
L1I LOAD      ACCESS:    9736640  HIT:    9351892  MISS:     384748
L1I RFO       ACCESS:          0  HIT:          0  MISS:          0
L1I PREFETCH  ACCESS:   18293950  HIT:   17359708  MISS:     934242
L1I WRITEBACK ACCESS:          0  HIT:          0  MISS:          0
L1I PREFETCH  REQUESTED:   23923730  ISSUED:   23923730  USEFUL:     696773  USELESS:     237534
L1I AVERAGE MISS LATENCY: 29.2955 cycles
L2C TOTAL     ACCESS:    7572985  HIT:    6587884  MISS:     985101
L2C LOAD      ACCESS:    2593327  HIT:    2161901  MISS:     431426
L2C RFO       ACCESS:     103838  HIT:      64617  MISS:      39221
L2C PREFETCH  ACCESS:    4618939  HIT:    4105318  MISS:     513621
L2C WRITEBACK ACCESS:     256881  HIT:     256048  MISS:        833
L2C PREFETCH  REQUESTED:    7382420  ISSUED:    7379482  USEFUL:      51638  USELESS:     461038
L2C AVERAGE MISS LATENCY: 43.2789 cycles
LLC TOTAL     ACCESS:    2627580  HIT:    2485937  MISS:     141643
LLC LOAD      ACCESS:     419945  HIT:     390352  MISS:      29593
LLC RFO       ACCESS:      39221  HIT:      30287  MISS:       8934
LLC PREFETCH  ACCESS:    2034301  HIT:    1931590  MISS:     102711
LLC WRITEBACK ACCESS:     134113  HIT:     133708  MISS:        405
LLC PREFETCH  REQUESTED:          0  ISSUED:          0  USEFUL:      19505  USELESS:      82043
LLC AVERAGE MISS LATENCY: 162.856 cycles
Major fault: 0 Minor fault: 6354
CPU 0 L1I EPI prefetcher final stats
CPU 0 L1D next line prefetcher final stats

DRAM Statistics
 CHANNEL 0
 RQ ROW_BUFFER_HIT:      26761  ROW_BUFFER_MISS:     114465
 DBUS_CONGESTED:      57246
 WQ ROW_BUFFER_HIT:       8305  ROW_BUFFER_MISS:      39848  FULL:          0

 AVG_CONGESTED_CYCLE: 5

CPU 0 Branch Prediction Accuracy: 94.3582% MPKI: 11.8964 Average ROB Occupancy at Mispredict: 53.2806

Branch types
NOT_BRANCH: 39456587 78.9132%
BRANCH_DIRECT_JUMP: 445350 0.8907%
BRANCH_INDIRECT: 131149 0.262298%
BRANCH_CONDITIONAL: 8130188 16.2604%
BRANCH_DIRECT_CALL: 732485 1.46497%
BRANCH_INDIRECT_CALL: 172369 0.344738%
BRANCH_RETURN: 931558 1.86312%
BRANCH_OTHER: 0 0%

