Initialize SIGNATURE TABLE
ST_SET: 1
ST_WAY: 256
ST_TAG_BIT: 16
ST_TAG_MASK: ffff

Initialize PATTERN TABLE
PT_SET: 512
PT_WAY: 4
SIG_DELTA_BIT: 7
C_SIG_BIT: 4
C_DELTA_BIT: 4

Initialize PREFETCH FILTER
FILTER_SET: 1024

*** ChampSim Multicore Out-of-Order Simulator ***

Warmup Instructions: 50000000
Simulation Instructions: 50000000
Number of CPUs: 1
LLC sets: 2048
LLC ways: 16
Off-chip DRAM Size: 4096 MB Channels: 1 Width: 64-bit Data Rate: 3200 MT/s

CPU 0 runs /home/xubinfang/Desktop/ChampSim/dpc3_traces/spec_gcc_003.champsimtrace.xz
CPU 0 Bimodal branch predictor
CPU 0 EPI prefetcher
CPU 0 L1D next line prefetcher
Heartbeat CPU 0 instructions: 10000001 cycles: 3505661 heartbeat IPC: 2.85253 cumulative IPC: 2.85253 (Simulation time: 0 hr 0 min 27 sec) 
Heartbeat CPU 0 instructions: 20000000 cycles: 6999465 heartbeat IPC: 2.86221 cumulative IPC: 2.85736 (Simulation time: 0 hr 0 min 55 sec) 
Heartbeat CPU 0 instructions: 30000002 cycles: 10466069 heartbeat IPC: 2.88467 cumulative IPC: 2.86641 (Simulation time: 0 hr 1 min 23 sec) 
Heartbeat CPU 0 instructions: 40000000 cycles: 13941887 heartbeat IPC: 2.87702 cumulative IPC: 2.86905 (Simulation time: 0 hr 1 min 52 sec) 
Heartbeat CPU 0 instructions: 50000001 cycles: 17252715 heartbeat IPC: 3.02039 cumulative IPC: 2.89809 (Simulation time: 0 hr 2 min 20 sec) 

Warmup complete CPU 0 instructions: 50000001 cycles: 17252715 (Simulation time: 0 hr 2 min 20 sec) 

Heartbeat CPU 0 instructions: 60000000 cycles: 58383227 heartbeat IPC: 0.243128 cumulative IPC: 0.243128 (Simulation time: 0 hr 3 min 25 sec) 
Heartbeat CPU 0 instructions: 70000000 cycles: 102313476 heartbeat IPC: 0.227634 cumulative IPC: 0.235126 (Simulation time: 0 hr 4 min 30 sec) 
Heartbeat CPU 0 instructions: 80000002 cycles: 146926226 heartbeat IPC: 0.224151 cumulative IPC: 0.23135 (Simulation time: 0 hr 5 min 37 sec) 
Heartbeat CPU 0 instructions: 90000002 cycles: 184614816 heartbeat IPC: 0.265332 cumulative IPC: 0.239003 (Simulation time: 0 hr 6 min 38 sec) 
Heartbeat CPU 0 instructions: 100000001 cycles: 231601792 heartbeat IPC: 0.212825 cumulative IPC: 0.233264 (Simulation time: 0 hr 7 min 48 sec) 
Finished CPU 0 instructions: 50000000 cycles: 214349077 cumulative IPC: 0.233264 (Simulation time: 0 hr 7 min 48 sec) 

ChampSim completed all CPUs

Region of Interest Statistics

CPU 0 cumulative IPC: 0.233264 instructions: 50000000 cycles: 214349077
L1D TOTAL     ACCESS:   17459212  HIT:   11734625  MISS:    5724587
L1D LOAD      ACCESS:    4840422  HIT:    4458351  MISS:     382071
L1D RFO       ACCESS:    8263249  HIT:    3211770  MISS:    5051479
L1D PREFETCH  ACCESS:    4355541  HIT:    4064504  MISS:     291037
L1D WRITEBACK ACCESS:          0  HIT:          0  MISS:          0
L1D PREFETCH  REQUESTED:    4860294  ISSUED:    4803660  USEFUL:     153334  USELESS:     137882
L1D AVERAGE MISS LATENCY: 507.299 cycles
L1I TOTAL     ACCESS:   28669519  HIT:   27432465  MISS:    1237054
L1I LOAD      ACCESS:   11306090  HIT:   11255744  MISS:      50346
L1I RFO       ACCESS:          0  HIT:          0  MISS:          0
L1I PREFETCH  ACCESS:   17363429  HIT:   16176721  MISS:    1186708
L1I WRITEBACK ACCESS:          0  HIT:          0  MISS:          0
L1I PREFETCH  REQUESTED:   23583697  ISSUED:   23583697  USEFUL:     779434  USELESS:     407204
L1I AVERAGE MISS LATENCY: 65.9328 cycles
L2C TOTAL     ACCESS:   12464651  HIT:    6400248  MISS:    6064403
L2C LOAD      ACCESS:     235043  HIT:      64048  MISS:     170995
L2C RFO       ACCESS:    5049924  HIT:       6620  MISS:    5043304
L2C PREFETCH  ACCESS:    2021754  HIT:    1171991  MISS:     849763
L2C WRITEBACK ACCESS:    5157930  HIT:    5157589  MISS:        341
L2C PREFETCH  REQUESTED:    2262551  ISSUED:    2262475  USEFUL:      24735  USELESS:     822062
L2C AVERAGE MISS LATENCY: 477.774 cycles
LLC TOTAL     ACCESS:   11997180  HIT:    7234177  MISS:    4763003
LLC LOAD      ACCESS:     170961  HIT:     127688  MISS:      43273
LLC RFO       ACCESS:    5043304  HIT:     595228  MISS:    4448076
LLC PREFETCH  ACCESS:    1649175  HIT:    1377521  MISS:     271654
LLC WRITEBACK ACCESS:    5133740  HIT:    5133740  MISS:          0
LLC PREFETCH  REQUESTED:          0  ISSUED:          0  USEFUL:      12637  USELESS:     258756
LLC AVERAGE MISS LATENCY: 578.144 cycles
Major fault: 0 Minor fault: 2822
CPU 0 L1I EPI prefetcher final stats
CPU 0 L1D next line prefetcher final stats

DRAM Statistics
 CHANNEL 0
 RQ ROW_BUFFER_HIT:    1436906  ROW_BUFFER_MISS:    3326061
 DBUS_CONGESTED:    8272273
 WQ ROW_BUFFER_HIT:    1193147  ROW_BUFFER_MISS:    3283772  FULL:          0

 AVG_CONGESTED_CYCLE: 6

CPU 0 Branch Prediction Accuracy: 96.3569% MPKI: 8.52058 Average ROB Occupancy at Mispredict: 56.81

Branch types
NOT_BRANCH: 38305858 76.6117%
BRANCH_DIRECT_JUMP: 384281 0.768562%
BRANCH_INDIRECT: 71949 0.143898%
BRANCH_CONDITIONAL: 9879825 19.7597%
BRANCH_DIRECT_CALL: 650586 1.30117%
BRANCH_INDIRECT_CALL: 28456 0.056912%
BRANCH_RETURN: 679046 1.35809%
BRANCH_OTHER: 0 0%

