Initialize SIGNATURE TABLE
ST_SET: 1
ST_WAY: 256
ST_TAG_BIT: 16
ST_TAG_MASK: ffff

Initialize PATTERN TABLE
PT_SET: 512
PT_WAY: 4
SIG_DELTA_BIT: 7
C_SIG_BIT: 4
C_DELTA_BIT: 4

Initialize PREFETCH FILTER
FILTER_SET: 1024

*** ChampSim Multicore Out-of-Order Simulator ***

Warmup Instructions: 50000000
Simulation Instructions: 50000000
Number of CPUs: 1
LLC sets: 2048
LLC ways: 16
Off-chip DRAM Size: 4096 MB Channels: 1 Width: 64-bit Data Rate: 3200 MT/s

CPU 0 runs /home/xubinfang/Desktop/ChampSim/dpc3_traces/spec_perlbench_001.champsimtrace.xz
CPU 0 Bimodal branch predictor
CPU 0 EPI prefetcher
CPU 0 L1D next line prefetcher
Heartbeat CPU 0 instructions: 10000000 cycles: 3276305 heartbeat IPC: 3.05222 cumulative IPC: 3.05222 (Simulation time: 0 hr 0 min 33 sec) 
Heartbeat CPU 0 instructions: 20000000 cycles: 6541810 heartbeat IPC: 3.06231 cumulative IPC: 3.05726 (Simulation time: 0 hr 1 min 10 sec) 
Heartbeat CPU 0 instructions: 30000002 cycles: 9859356 heartbeat IPC: 3.01428 cumulative IPC: 3.0428 (Simulation time: 0 hr 1 min 48 sec) 
Heartbeat CPU 0 instructions: 40000002 cycles: 13115170 heartbeat IPC: 3.07143 cumulative IPC: 3.0499 (Simulation time: 0 hr 2 min 23 sec) 
Heartbeat CPU 0 instructions: 50000001 cycles: 16389127 heartbeat IPC: 3.05441 cumulative IPC: 3.0508 (Simulation time: 0 hr 2 min 57 sec) 

Warmup complete CPU 0 instructions: 50000001 cycles: 16389127 (Simulation time: 0 hr 2 min 57 sec) 

Heartbeat CPU 0 instructions: 60000001 cycles: 25273489 heartbeat IPC: 1.12557 cumulative IPC: 1.12557 (Simulation time: 0 hr 3 min 30 sec) 
Heartbeat CPU 0 instructions: 70000000 cycles: 34058312 heartbeat IPC: 1.13833 cumulative IPC: 1.13191 (Simulation time: 0 hr 4 min 2 sec) 
Heartbeat CPU 0 instructions: 80000000 cycles: 43112854 heartbeat IPC: 1.10442 cumulative IPC: 1.1226 (Simulation time: 0 hr 4 min 32 sec) 
Heartbeat CPU 0 instructions: 90000003 cycles: 49376927 heartbeat IPC: 1.59641 cumulative IPC: 1.21257 (Simulation time: 0 hr 4 min 59 sec) 
Heartbeat CPU 0 instructions: 100000002 cycles: 55718586 heartbeat IPC: 1.57687 cumulative IPC: 1.27131 (Simulation time: 0 hr 5 min 29 sec) 
Finished CPU 0 instructions: 50000001 cycles: 39329459 cumulative IPC: 1.27131 (Simulation time: 0 hr 5 min 29 sec) 

ChampSim completed all CPUs

Region of Interest Statistics

CPU 0 cumulative IPC: 1.27131 instructions: 50000001 cycles: 39329459
L1D TOTAL     ACCESS:   21423976  HIT:   21008859  MISS:     415117
L1D LOAD      ACCESS:    7527334  HIT:    7314115  MISS:     213219
L1D RFO       ACCESS:    6558031  HIT:    6539511  MISS:      18520
L1D PREFETCH  ACCESS:    7338611  HIT:    7155233  MISS:     183378
L1D WRITEBACK ACCESS:          0  HIT:          0  MISS:          0
L1D PREFETCH  REQUESTED:    7547078  ISSUED:    7433606  USEFUL:      55666  USELESS:     127707
L1D AVERAGE MISS LATENCY: 57.8567 cycles
L1I TOTAL     ACCESS:   36690646  HIT:   35972617  MISS:     718029
L1I LOAD      ACCESS:    9084133  HIT:    9041498  MISS:      42635
L1I RFO       ACCESS:          0  HIT:          0  MISS:          0
L1I PREFETCH  ACCESS:   27606513  HIT:   26931119  MISS:     675394
L1I WRITEBACK ACCESS:          0  HIT:          0  MISS:          0
L1I PREFETCH  REQUESTED:   32240181  ISSUED:   32240181  USEFUL:     412295  USELESS:     263134
L1I AVERAGE MISS LATENCY: 16.7948 cycles
L2C TOTAL     ACCESS:    1599698  HIT:    1432781  MISS:     166917
L2C LOAD      ACCESS:     237388  HIT:     156336  MISS:      81052
L2C RFO       ACCESS:      18307  HIT:      12834  MISS:       5473
L2C PREFETCH  ACCESS:    1265091  HIT:    1185050  MISS:      80041
L2C WRITEBACK ACCESS:      78912  HIT:      78561  MISS:        351
L2C PREFETCH  REQUESTED:    1120283  ISSUED:    1120271  USEFUL:       6184  USELESS:      73768
L2C AVERAGE MISS LATENCY: 118.345 cycles
LLC TOTAL     ACCESS:     420941  HIT:     278405  MISS:     142536
LLC LOAD      ACCESS:      81039  HIT:      32234  MISS:      48805
LLC RFO       ACCESS:       5473  HIT:       2469  MISS:       3004
LLC PREFETCH  ACCESS:     308931  HIT:     218704  MISS:      90227
LLC WRITEBACK ACCESS:      25498  HIT:      24998  MISS:        500
LLC PREFETCH  REQUESTED:          0  ISSUED:          0  USEFUL:      15390  USELESS:      74418
LLC AVERAGE MISS LATENCY: 159.479 cycles
Major fault: 0 Minor fault: 6366
CPU 0 L1I EPI prefetcher final stats
CPU 0 L1D next line prefetcher final stats

DRAM Statistics
 CHANNEL 0
 RQ ROW_BUFFER_HIT:      32203  ROW_BUFFER_MISS:     109831
 DBUS_CONGESTED:      58850
 WQ ROW_BUFFER_HIT:       4138  ROW_BUFFER_MISS:      13228  FULL:          0

 AVG_CONGESTED_CYCLE: 4

CPU 0 Branch Prediction Accuracy: 95.0896% MPKI: 9.66922 Average ROB Occupancy at Mispredict: 54.912

Branch types
NOT_BRANCH: 40154100 80.3082%
BRANCH_DIRECT_JUMP: 817094 1.63419%
BRANCH_INDIRECT: 303787 0.607574%
BRANCH_CONDITIONAL: 7492103 14.9842%
BRANCH_DIRECT_CALL: 471777 0.943554%
BRANCH_INDIRECT_CALL: 144546 0.289092%
BRANCH_RETURN: 616324 1.23265%
BRANCH_OTHER: 0 0%

