Initialize SIGNATURE TABLE
ST_SET: 1
ST_WAY: 256
ST_TAG_BIT: 16
ST_TAG_MASK: ffff

Initialize PATTERN TABLE
PT_SET: 512
PT_WAY: 4
SIG_DELTA_BIT: 7
C_SIG_BIT: 4
C_DELTA_BIT: 4

Initialize PREFETCH FILTER
FILTER_SET: 1024

*** ChampSim Multicore Out-of-Order Simulator ***

Warmup Instructions: 50000000
Simulation Instructions: 50000000
Number of CPUs: 1
LLC sets: 2048
LLC ways: 16
Off-chip DRAM Size: 4096 MB Channels: 1 Width: 64-bit Data Rate: 3200 MT/s

CPU 0 runs /home/xubinfang/Desktop/ChampSim/dpc3_traces/spec_gobmk_001.champsimtrace.xz
CPU 0 Bimodal branch predictor
CPU 0 EPI prefetcher
CPU 0 L1D next line prefetcher
Heartbeat CPU 0 instructions: 10000003 cycles: 3508014 heartbeat IPC: 2.85062 cumulative IPC: 2.85062 (Simulation time: 0 hr 0 min 32 sec) 
Heartbeat CPU 0 instructions: 20000002 cycles: 6988933 heartbeat IPC: 2.8728 cumulative IPC: 2.86167 (Simulation time: 0 hr 1 min 4 sec) 
Heartbeat CPU 0 instructions: 30000002 cycles: 10508251 heartbeat IPC: 2.84146 cumulative IPC: 2.8549 (Simulation time: 0 hr 1 min 36 sec) 
Heartbeat CPU 0 instructions: 40000001 cycles: 14028043 heartbeat IPC: 2.84108 cumulative IPC: 2.85143 (Simulation time: 0 hr 2 min 10 sec) 
Heartbeat CPU 0 instructions: 50000001 cycles: 17568564 heartbeat IPC: 2.82444 cumulative IPC: 2.84599 (Simulation time: 0 hr 2 min 51 sec) 

Warmup complete CPU 0 instructions: 50000001 cycles: 17568564 (Simulation time: 0 hr 2 min 51 sec) 

Heartbeat CPU 0 instructions: 60000000 cycles: 27238698 heartbeat IPC: 1.03411 cumulative IPC: 1.03411 (Simulation time: 0 hr 3 min 23 sec) 
Heartbeat CPU 0 instructions: 70000002 cycles: 36639189 heartbeat IPC: 1.06377 cumulative IPC: 1.04873 (Simulation time: 0 hr 3 min 54 sec) 
Heartbeat CPU 0 instructions: 80000003 cycles: 46461942 heartbeat IPC: 1.01804 cumulative IPC: 1.0383 (Simulation time: 0 hr 4 min 22 sec) 
Heartbeat CPU 0 instructions: 90000001 cycles: 56083364 heartbeat IPC: 1.03935 cumulative IPC: 1.03856 (Simulation time: 0 hr 4 min 51 sec) 
Heartbeat CPU 0 instructions: 100000000 cycles: 65891307 heartbeat IPC: 1.01958 cumulative IPC: 1.03471 (Simulation time: 0 hr 5 min 22 sec) 
Finished CPU 0 instructions: 50000002 cycles: 48322744 cumulative IPC: 1.03471 (Simulation time: 0 hr 5 min 22 sec) 

ChampSim completed all CPUs

Region of Interest Statistics

CPU 0 cumulative IPC: 1.03471 instructions: 50000002 cycles: 48322744
L1D TOTAL     ACCESS:   18478794  HIT:   18099210  MISS:     379584
L1D LOAD      ACCESS:    7449998  HIT:    7315964  MISS:     134034
L1D RFO       ACCESS:    3715277  HIT:    3610975  MISS:     104302
L1D PREFETCH  ACCESS:    7313519  HIT:    7172271  MISS:     141248
L1D WRITEBACK ACCESS:          0  HIT:          0  MISS:          0
L1D PREFETCH  REQUESTED:    7455541  ISSUED:    7372164  USEFUL:      46545  USELESS:      94708
L1D AVERAGE MISS LATENCY: 33.8941 cycles
L1I TOTAL     ACCESS:   49178969  HIT:   47771758  MISS:    1407211
L1I LOAD      ACCESS:    9027413  HIT:    8970849  MISS:      56564
L1I RFO       ACCESS:          0  HIT:          0  MISS:          0
L1I PREFETCH  ACCESS:   40151556  HIT:   38800909  MISS:    1350647
L1I WRITEBACK ACCESS:          0  HIT:          0  MISS:          0
L1I PREFETCH  REQUESTED:   54801402  ISSUED:   54801402  USEFUL:     669623  USELESS:     681022
L1I AVERAGE MISS LATENCY: 15.0726 cycles
L2C TOTAL     ACCESS:    2787987  HIT:    2659583  MISS:     128404
L2C LOAD      ACCESS:     155635  HIT:     120782  MISS:      34853
L2C RFO       ACCESS:     103918  HIT:      69370  MISS:      34548
L2C PREFETCH  ACCESS:    2389135  HIT:    2330197  MISS:      58938
L2C WRITEBACK ACCESS:     139299  HIT:     139234  MISS:         65
L2C PREFETCH  REQUESTED:    2106559  ISSUED:    2106356  USEFUL:       4699  USELESS:      54453
L2C AVERAGE MISS LATENCY: 64.9266 cycles
LLC TOTAL     ACCESS:     288271  HIT:     249482  MISS:      38789
LLC LOAD      ACCESS:      34853  HIT:      26672  MISS:       8181
LLC RFO       ACCESS:      34548  HIT:      27356  MISS:       7192
LLC PREFETCH  ACCESS:     173455  HIT:     150331  MISS:      23124
LLC WRITEBACK ACCESS:      45415  HIT:      45123  MISS:        292
LLC PREFETCH  REQUESTED:          0  ISSUED:          0  USEFUL:       1397  USELESS:      19713
LLC AVERAGE MISS LATENCY: 178.426 cycles
Major fault: 0 Minor fault: 4156
CPU 0 L1I EPI prefetcher final stats
CPU 0 L1D next line prefetcher final stats

DRAM Statistics
 CHANNEL 0
 RQ ROW_BUFFER_HIT:       4976  ROW_BUFFER_MISS:      33521
 DBUS_CONGESTED:      23726
 WQ ROW_BUFFER_HIT:       1614  ROW_BUFFER_MISS:      15465  FULL:          0

 AVG_CONGESTED_CYCLE: 4

CPU 0 Branch Prediction Accuracy: 88.3128% MPKI: 21.7482 Average ROB Occupancy at Mispredict: 36.0008

Branch types
NOT_BRANCH: 40695354 81.3907%
BRANCH_DIRECT_JUMP: 422107 0.844214%
BRANCH_INDIRECT: 65 0.00013%
BRANCH_CONDITIONAL: 8105001 16.21%
BRANCH_DIRECT_CALL: 374912 0.749824%
BRANCH_INDIRECT_CALL: 13657 0.027314%
BRANCH_RETURN: 388556 0.777112%
BRANCH_OTHER: 0 0%

