Initialize SIGNATURE TABLE
ST_SET: 1
ST_WAY: 256
ST_TAG_BIT: 16
ST_TAG_MASK: ffff

Initialize PATTERN TABLE
PT_SET: 512
PT_WAY: 4
SIG_DELTA_BIT: 7
C_SIG_BIT: 4
C_DELTA_BIT: 4

Initialize PREFETCH FILTER
FILTER_SET: 1024

*** ChampSim Multicore Out-of-Order Simulator ***

Warmup Instructions: 50000000
Simulation Instructions: 50000000
Number of CPUs: 1
LLC sets: 2048
LLC ways: 16
Off-chip DRAM Size: 4096 MB Channels: 1 Width: 64-bit Data Rate: 3200 MT/s

CPU 0 runs /home/yuc621/Champsim/dpc3_traces/client_003.champsimtrace.xz
CPU 0 Bimodal branch predictor
CPU 0 EPI prefetcher
CPU 0 L1D next line prefetcher
Heartbeat CPU 0 instructions: 10000000 cycles: 3478700 heartbeat IPC: 2.87464 cumulative IPC: 2.87464 (Simulation time: 0 hr 0 min 27 sec) 
Heartbeat CPU 0 instructions: 20000002 cycles: 6933383 heartbeat IPC: 2.89462 cumulative IPC: 2.88459 (Simulation time: 0 hr 0 min 55 sec) 
Heartbeat CPU 0 instructions: 30000003 cycles: 10494493 heartbeat IPC: 2.80811 cumulative IPC: 2.85864 (Simulation time: 0 hr 1 min 24 sec) 
Heartbeat CPU 0 instructions: 40000001 cycles: 14111107 heartbeat IPC: 2.76502 cumulative IPC: 2.83465 (Simulation time: 0 hr 1 min 54 sec) 
Heartbeat CPU 0 instructions: 50000003 cycles: 17656465 heartbeat IPC: 2.82059 cumulative IPC: 2.83182 (Simulation time: 0 hr 2 min 23 sec) 

Warmup complete CPU 0 instructions: 50000003 cycles: 17656465 (Simulation time: 0 hr 2 min 23 sec) 

Heartbeat CPU 0 instructions: 60000002 cycles: 24298511 heartbeat IPC: 1.50556 cumulative IPC: 1.50556 (Simulation time: 0 hr 2 min 49 sec) 
Heartbeat CPU 0 instructions: 70000001 cycles: 30765687 heartbeat IPC: 1.54627 cumulative IPC: 1.52564 (Simulation time: 0 hr 3 min 15 sec) 
Heartbeat CPU 0 instructions: 80000001 cycles: 38064888 heartbeat IPC: 1.37001 cumulative IPC: 1.46998 (Simulation time: 0 hr 3 min 39 sec) 
Heartbeat CPU 0 instructions: 90000000 cycles: 47246969 heartbeat IPC: 1.08908 cumulative IPC: 1.35178 (Simulation time: 0 hr 3 min 57 sec) 
Heartbeat CPU 0 instructions: 100000003 cycles: 58138754 heartbeat IPC: 0.918123 cumulative IPC: 1.23511 (Simulation time: 0 hr 4 min 17 sec) 
Finished CPU 0 instructions: 50000000 cycles: 40482289 cumulative IPC: 1.23511 (Simulation time: 0 hr 4 min 17 sec) 

ChampSim completed all CPUs

Region of Interest Statistics

CPU 0 cumulative IPC: 1.23511 instructions: 50000000 cycles: 40482289
L1D TOTAL     ACCESS:   18007471  HIT:   17511303  MISS:     496168
L1D LOAD      ACCESS:    6222114  HIT:    6095644  MISS:     126470
L1D RFO       ACCESS:    5957583  HIT:    5723313  MISS:     234270
L1D PREFETCH  ACCESS:    5827774  HIT:    5692346  MISS:     135428
L1D WRITEBACK ACCESS:          0  HIT:          0  MISS:          0
L1D PREFETCH  REQUESTED:    6264011  ISSUED:    6119432  USEFUL:      67383  USELESS:      68092
L1D AVERAGE MISS LATENCY: 121.817 cycles
L1I TOTAL     ACCESS:   29387856  HIT:   28529902  MISS:     857954
L1I LOAD      ACCESS:    9428126  HIT:    9366561  MISS:      61565
L1I RFO       ACCESS:          0  HIT:          0  MISS:          0
L1I PREFETCH  ACCESS:   19959730  HIT:   19163341  MISS:     796389
L1I WRITEBACK ACCESS:          0  HIT:          0  MISS:          0
L1I PREFETCH  REQUESTED:   24588395  ISSUED:   24588395  USEFUL:     509073  USELESS:     287400
L1I AVERAGE MISS LATENCY: 19.7192 cycles
L2C TOTAL     ACCESS:    2027792  HIT:    1630934  MISS:     396858
L2C LOAD      ACCESS:     138718  HIT:      92377  MISS:      46341
L2C RFO       ACCESS:     232247  HIT:      25691  MISS:     206556
L2C PREFETCH  ACCESS:    1387533  HIT:    1244763  MISS:     142770
L2C WRITEBACK ACCESS:     269294  HIT:     268103  MISS:       1191
L2C PREFETCH  REQUESTED:    1404026  ISSUED:    1403467  USEFUL:      11514  USELESS:     131180
L2C AVERAGE MISS LATENCY: 165.676 cycles
LLC TOTAL     ACCESS:    1004257  HIT:     719093  MISS:     285164
LLC LOAD      ACCESS:      46252  HIT:      31835  MISS:      14417
LLC RFO       ACCESS:     206542  HIT:      34723  MISS:     171819
LLC PREFETCH  ACCESS:     527329  HIT:     428838  MISS:      98491
LLC WRITEBACK ACCESS:     224134  HIT:     223697  MISS:        437
LLC PREFETCH  REQUESTED:          0  ISSUED:          0  USEFUL:      13113  USELESS:      84890
LLC AVERAGE MISS LATENCY: 229.752 cycles
Major fault: 0 Minor fault: 5044
CPU 0 L1I EPI prefetcher final stats
CPU 0 L1D next line prefetcher final stats

DRAM Statistics
 CHANNEL 0
 RQ ROW_BUFFER_HIT:     100544  ROW_BUFFER_MISS:     184168
 DBUS_CONGESTED:     255666
 WQ ROW_BUFFER_HIT:      59472  ROW_BUFFER_MISS:     119390  FULL:          0

 AVG_CONGESTED_CYCLE: 6

CPU 0 Branch Prediction Accuracy: 96.8235% MPKI: 6.3409 Average ROB Occupancy at Mispredict: 67.3726

Branch types
NOT_BRANCH: 40018656 80.0373%
BRANCH_DIRECT_JUMP: 370859 0.741718%
BRANCH_INDIRECT: 83252 0.166504%
BRANCH_CONDITIONAL: 7877420 15.7548%
BRANCH_DIRECT_CALL: 722308 1.44462%
BRANCH_INDIRECT_CALL: 101901 0.203802%
BRANCH_RETURN: 825352 1.6507%
BRANCH_OTHER: 0 0%

