Initialize SIGNATURE TABLE
ST_SET: 1
ST_WAY: 256
ST_TAG_BIT: 16
ST_TAG_MASK: ffff

Initialize PATTERN TABLE
PT_SET: 512
PT_WAY: 4
SIG_DELTA_BIT: 7
C_SIG_BIT: 4
C_DELTA_BIT: 4

Initialize PREFETCH FILTER
FILTER_SET: 1024

*** ChampSim Multicore Out-of-Order Simulator ***

Warmup Instructions: 50000000
Simulation Instructions: 50000000
Number of CPUs: 1
LLC sets: 2048
LLC ways: 16
Off-chip DRAM Size: 4096 MB Channels: 1 Width: 64-bit Data Rate: 3200 MT/s

CPU 0 runs /home/yuc621/Champsim/dpc3_traces/client_005.champsimtrace.xz
CPU 0 Bimodal branch predictor
CPU 0 EPI prefetcher
CPU 0 L1D next line prefetcher
Heartbeat CPU 0 instructions: 10000001 cycles: 3292169 heartbeat IPC: 3.03751 cumulative IPC: 3.03751 (Simulation time: 0 hr 0 min 26 sec) 
Heartbeat CPU 0 instructions: 20000002 cycles: 6699070 heartbeat IPC: 2.93522 cumulative IPC: 2.98549 (Simulation time: 0 hr 0 min 54 sec) 
Heartbeat CPU 0 instructions: 30000001 cycles: 10392513 heartbeat IPC: 2.7075 cumulative IPC: 2.88669 (Simulation time: 0 hr 1 min 25 sec) 
Heartbeat CPU 0 instructions: 40000000 cycles: 14070541 heartbeat IPC: 2.71885 cumulative IPC: 2.84282 (Simulation time: 0 hr 1 min 56 sec) 
Heartbeat CPU 0 instructions: 50000001 cycles: 17344807 heartbeat IPC: 3.05412 cumulative IPC: 2.88271 (Simulation time: 0 hr 2 min 23 sec) 

Warmup complete CPU 0 instructions: 50000001 cycles: 17344807 (Simulation time: 0 hr 2 min 23 sec) 

Heartbeat CPU 0 instructions: 60000001 cycles: 25608792 heartbeat IPC: 1.21007 cumulative IPC: 1.21007 (Simulation time: 0 hr 2 min 47 sec) 
Heartbeat CPU 0 instructions: 70000003 cycles: 33366864 heartbeat IPC: 1.28898 cumulative IPC: 1.24828 (Simulation time: 0 hr 3 min 11 sec) 
Heartbeat CPU 0 instructions: 80000001 cycles: 40488693 heartbeat IPC: 1.40413 cumulative IPC: 1.29624 (Simulation time: 0 hr 3 min 39 sec) 
Heartbeat CPU 0 instructions: 90000002 cycles: 50279397 heartbeat IPC: 1.02138 cumulative IPC: 1.21453 (Simulation time: 0 hr 4 min 8 sec) 
Heartbeat CPU 0 instructions: 100000002 cycles: 58497174 heartbeat IPC: 1.21687 cumulative IPC: 1.215 (Simulation time: 0 hr 4 min 31 sec) 
Finished CPU 0 instructions: 50000001 cycles: 41152367 cumulative IPC: 1.215 (Simulation time: 0 hr 4 min 31 sec) 

ChampSim completed all CPUs

Region of Interest Statistics

CPU 0 cumulative IPC: 1.215 instructions: 50000001 cycles: 41152367
L1D TOTAL     ACCESS:   20126773  HIT:   19590721  MISS:     536052
L1D LOAD      ACCESS:    6890926  HIT:    6719726  MISS:     171200
L1D RFO       ACCESS:    6807454  HIT:    6623111  MISS:     184343
L1D PREFETCH  ACCESS:    6428393  HIT:    6247884  MISS:     180509
L1D WRITEBACK ACCESS:          0  HIT:          0  MISS:          0
L1D PREFETCH  REQUESTED:    6914778  ISSUED:    6537493  USEFUL:      60129  USELESS:     120268
L1D AVERAGE MISS LATENCY: 91.978 cycles
L1I TOTAL     ACCESS:   34507877  HIT:   33206343  MISS:    1301534
L1I LOAD      ACCESS:    9306750  HIT:    9203200  MISS:     103550
L1I RFO       ACCESS:          0  HIT:          0  MISS:          0
L1I PREFETCH  ACCESS:   25201127  HIT:   24003143  MISS:    1197984
L1I WRITEBACK ACCESS:          0  HIT:          0  MISS:          0
L1I PREFETCH  REQUESTED:   30216939  ISSUED:   30216939  USEFUL:     740888  USELESS:     457088
L1I AVERAGE MISS LATENCY: 19.1092 cycles
L2C TOTAL     ACCESS:    2704350  HIT:    2315863  MISS:     388487
L2C LOAD      ACCESS:     236606  HIT:     144114  MISS:      92492
L2C RFO       ACCESS:     180766  HIT:      32331  MISS:     148435
L2C PREFETCH  ACCESS:    2033941  HIT:    1887703  MISS:     146238
L2C WRITEBACK ACCESS:     253037  HIT:     251715  MISS:       1322
L2C PREFETCH  REQUESTED:    1877522  ISSUED:    1876875  USEFUL:      15186  USELESS:     129372
L2C AVERAGE MISS LATENCY: 124.4 cycles
LLC TOTAL     ACCESS:     988088  HIT:     689180  MISS:     298908
LLC LOAD      ACCESS:      92476  HIT:      48162  MISS:      44314
LLC RFO       ACCESS:     148434  HIT:      17932  MISS:     130502
LLC PREFETCH  ACCESS:     548912  HIT:     425722  MISS:     123190
LLC WRITEBACK ACCESS:     198266  HIT:     197364  MISS:        902
LLC PREFETCH  REQUESTED:          0  ISSUED:          0  USEFUL:      31116  USELESS:      89449
LLC AVERAGE MISS LATENCY: 167.249 cycles
Major fault: 0 Minor fault: 6086
CPU 0 L1I EPI prefetcher final stats
CPU 0 L1D next line prefetcher final stats

DRAM Statistics
 CHANNEL 0
 RQ ROW_BUFFER_HIT:      96778  ROW_BUFFER_MISS:     201222
 DBUS_CONGESTED:     238723
 WQ ROW_BUFFER_HIT:      51325  ROW_BUFFER_MISS:     131437  FULL:          0

 AVG_CONGESTED_CYCLE: 6

CPU 0 Branch Prediction Accuracy: 94.8377% MPKI: 9.44012 Average ROB Occupancy at Mispredict: 67.5121

Branch types
NOT_BRANCH: 40856324 81.7126%
BRANCH_DIRECT_JUMP: 484667 0.969334%
BRANCH_INDIRECT: 85086 0.170172%
BRANCH_CONDITIONAL: 6230887 12.4618%
BRANCH_DIRECT_CALL: 1028917 2.05783%
BRANCH_INDIRECT_CALL: 141825 0.28365%
BRANCH_RETURN: 1171985 2.34397%
BRANCH_OTHER: 0 0%

