Initialize SIGNATURE TABLE
ST_SET: 1
ST_WAY: 256
ST_TAG_BIT: 16
ST_TAG_MASK: ffff

Initialize PATTERN TABLE
PT_SET: 512
PT_WAY: 4
SIG_DELTA_BIT: 7
C_SIG_BIT: 4
C_DELTA_BIT: 4

Initialize PREFETCH FILTER
FILTER_SET: 1024

*** ChampSim Multicore Out-of-Order Simulator ***

Warmup Instructions: 50000000
Simulation Instructions: 50000000
Number of CPUs: 1
LLC sets: 2048
LLC ways: 16
Off-chip DRAM Size: 4096 MB Channels: 1 Width: 64-bit Data Rate: 3200 MT/s

CPU 0 runs /home/yuc621/Champsim/dpc3_traces/server_025.champsimtrace.xz
CPU 0 Bimodal branch predictor
CPU 0 EPI prefetcher
CPU 0 L1D next line prefetcher
Heartbeat CPU 0 instructions: 10000003 cycles: 3525369 heartbeat IPC: 2.83658 cumulative IPC: 2.83658 (Simulation time: 0 hr 0 min 29 sec) 
Heartbeat CPU 0 instructions: 20000000 cycles: 7058300 heartbeat IPC: 2.83051 cumulative IPC: 2.83354 (Simulation time: 0 hr 0 min 57 sec) 
Heartbeat CPU 0 instructions: 30000001 cycles: 10583019 heartbeat IPC: 2.83711 cumulative IPC: 2.83473 (Simulation time: 0 hr 1 min 25 sec) 
Heartbeat CPU 0 instructions: 40000003 cycles: 14113861 heartbeat IPC: 2.83219 cumulative IPC: 2.83409 (Simulation time: 0 hr 1 min 53 sec) 
Heartbeat CPU 0 instructions: 50000001 cycles: 17643433 heartbeat IPC: 2.8332 cumulative IPC: 2.83392 (Simulation time: 0 hr 2 min 21 sec) 

Warmup complete CPU 0 instructions: 50000001 cycles: 17643433 (Simulation time: 0 hr 2 min 21 sec) 

Heartbeat CPU 0 instructions: 60000003 cycles: 25517434 heartbeat IPC: 1.27 cumulative IPC: 1.27 (Simulation time: 0 hr 2 min 45 sec) 
Heartbeat CPU 0 instructions: 70000000 cycles: 33494573 heartbeat IPC: 1.25358 cumulative IPC: 1.26174 (Simulation time: 0 hr 3 min 10 sec) 
Heartbeat CPU 0 instructions: 80000002 cycles: 41375071 heartbeat IPC: 1.26896 cumulative IPC: 1.26414 (Simulation time: 0 hr 3 min 35 sec) 
Heartbeat CPU 0 instructions: 90000001 cycles: 48785527 heartbeat IPC: 1.34944 cumulative IPC: 1.28444 (Simulation time: 0 hr 3 min 59 sec) 
Heartbeat CPU 0 instructions: 100000003 cycles: 55809317 heartbeat IPC: 1.42373 cumulative IPC: 1.31007 (Simulation time: 0 hr 4 min 24 sec) 
Finished CPU 0 instructions: 50000002 cycles: 38165884 cumulative IPC: 1.31007 (Simulation time: 0 hr 4 min 24 sec) 

ChampSim completed all CPUs

Region of Interest Statistics

CPU 0 cumulative IPC: 1.31007 instructions: 50000002 cycles: 38165884
L1D TOTAL     ACCESS:   21377162  HIT:   19949745  MISS:    1427417
L1D LOAD      ACCESS:    7630597  HIT:    7018430  MISS:     612167
L1D RFO       ACCESS:    6407905  HIT:    6159276  MISS:     248629
L1D PREFETCH  ACCESS:    7338660  HIT:    6772039  MISS:     566621
L1D WRITEBACK ACCESS:          0  HIT:          0  MISS:          0
L1D PREFETCH  REQUESTED:    7677121  ISSUED:    7523164  USEFUL:     137875  USELESS:     428739
L1D AVERAGE MISS LATENCY: 22.5288 cycles
L1I TOTAL     ACCESS:   30565313  HIT:   27577953  MISS:    2987360
L1I LOAD      ACCESS:    9246809  HIT:    9197594  MISS:      49215
L1I RFO       ACCESS:          0  HIT:          0  MISS:          0
L1I PREFETCH  ACCESS:   21318504  HIT:   18380359  MISS:    2938145
L1I WRITEBACK ACCESS:          0  HIT:          0  MISS:          0
L1I PREFETCH  REQUESTED:   26911179  ISSUED:   26911179  USEFUL:    2436314  USELESS:     501882
L1I AVERAGE MISS LATENCY: 19.1666 cycles
L2C TOTAL     ACCESS:    6053364  HIT:    5401916  MISS:     651448
L2C LOAD      ACCESS:     599465  HIT:     501409  MISS:      98056
L2C RFO       ACCESS:     246537  HIT:     173429  MISS:      73108
L2C PREFETCH  ACCESS:    4710548  HIT:    4233777  MISS:     476771
L2C WRITEBACK ACCESS:     496814  HIT:     493301  MISS:       3513
L2C PREFETCH  REQUESTED:    4883303  ISSUED:    4876233  USEFUL:      10509  USELESS:     465568
L2C AVERAGE MISS LATENCY: 38.755 cycles
LLC TOTAL     ACCESS:    2106005  HIT:    2072941  MISS:      33064
LLC LOAD      ACCESS:      97968  HIT:      94549  MISS:       3419
LLC RFO       ACCESS:      73108  HIT:      62301  MISS:      10807
LLC PREFETCH  ACCESS:    1812907  HIT:    1794302  MISS:      18605
LLC WRITEBACK ACCESS:     122022  HIT:     121789  MISS:        233
LLC PREFETCH  REQUESTED:          0  ISSUED:          0  USEFUL:       1106  USELESS:      15633
LLC AVERAGE MISS LATENCY: 179.588 cycles
Major fault: 0 Minor fault: 2459
CPU 0 L1I EPI prefetcher final stats
CPU 0 L1D next line prefetcher final stats

DRAM Statistics
 CHANNEL 0
 RQ ROW_BUFFER_HIT:      10130  ROW_BUFFER_MISS:      22699
 DBUS_CONGESTED:      20026
 WQ ROW_BUFFER_HIT:       1417  ROW_BUFFER_MISS:      12515  FULL:          0

 AVG_CONGESTED_CYCLE: 6

CPU 0 Branch Prediction Accuracy: 92.2762% MPKI: 14.4142 Average ROB Occupancy at Mispredict: 63.8089

Branch types
NOT_BRANCH: 40668701 81.3374%
BRANCH_DIRECT_JUMP: 531698 1.0634%
BRANCH_INDIRECT: 199023 0.398046%
BRANCH_CONDITIONAL: 6211458 12.4229%
BRANCH_DIRECT_CALL: 1010905 2.02181%
BRANCH_INDIRECT_CALL: 183501 0.367002%
BRANCH_RETURN: 1194407 2.38881%
BRANCH_OTHER: 0 0%

