Initialize SIGNATURE TABLE
ST_SET: 1
ST_WAY: 256
ST_TAG_BIT: 16
ST_TAG_MASK: ffff

Initialize PATTERN TABLE
PT_SET: 512
PT_WAY: 4
SIG_DELTA_BIT: 7
C_SIG_BIT: 4
C_DELTA_BIT: 4

Initialize PREFETCH FILTER
FILTER_SET: 1024

*** ChampSim Multicore Out-of-Order Simulator ***

Warmup Instructions: 50000000
Simulation Instructions: 50000000
Number of CPUs: 1
LLC sets: 2048
LLC ways: 16
Off-chip DRAM Size: 4096 MB Channels: 1 Width: 64-bit Data Rate: 3200 MT/s

CPU 0 runs /home/yuc621/Champsim/dpc3_traces/server_030.champsimtrace.xz
CPU 0 Bimodal branch predictor
CPU 0 EPI prefetcher
CPU 0 L1D next line prefetcher
Heartbeat CPU 0 instructions: 10000003 cycles: 3506311 heartbeat IPC: 2.852 cumulative IPC: 2.852 (Simulation time: 0 hr 0 min 28 sec) 
Heartbeat CPU 0 instructions: 20000003 cycles: 7012076 heartbeat IPC: 2.85244 cumulative IPC: 2.85222 (Simulation time: 0 hr 0 min 57 sec) 
Heartbeat CPU 0 instructions: 30000000 cycles: 10516544 heartbeat IPC: 2.8535 cumulative IPC: 2.85265 (Simulation time: 0 hr 1 min 25 sec) 
Heartbeat CPU 0 instructions: 40000002 cycles: 14022533 heartbeat IPC: 2.85226 cumulative IPC: 2.85255 (Simulation time: 0 hr 1 min 53 sec) 
Heartbeat CPU 0 instructions: 50000002 cycles: 17530784 heartbeat IPC: 2.85042 cumulative IPC: 2.85213 (Simulation time: 0 hr 2 min 22 sec) 

Warmup complete CPU 0 instructions: 50000002 cycles: 17530784 (Simulation time: 0 hr 2 min 22 sec) 

Heartbeat CPU 0 instructions: 60000000 cycles: 25510820 heartbeat IPC: 1.25313 cumulative IPC: 1.25313 (Simulation time: 0 hr 2 min 46 sec) 
Heartbeat CPU 0 instructions: 70000000 cycles: 33500784 heartbeat IPC: 1.25157 cumulative IPC: 1.25235 (Simulation time: 0 hr 3 min 11 sec) 
Heartbeat CPU 0 instructions: 80000001 cycles: 41473358 heartbeat IPC: 1.2543 cumulative IPC: 1.253 (Simulation time: 0 hr 3 min 35 sec) 
*** Reached end of trace for Core: 0 Repeating trace: /home/yuc621/Champsim/dpc3_traces/server_030.champsimtrace.xz
Heartbeat CPU 0 instructions: 90000002 cycles: 49468698 heartbeat IPC: 1.25073 cumulative IPC: 1.25243 (Simulation time: 0 hr 4 min 0 sec) 
Heartbeat CPU 0 instructions: 100000002 cycles: 57439237 heartbeat IPC: 1.25462 cumulative IPC: 1.25287 (Simulation time: 0 hr 4 min 25 sec) 
Finished CPU 0 instructions: 50000000 cycles: 39908453 cumulative IPC: 1.25287 (Simulation time: 0 hr 4 min 25 sec) 

ChampSim completed all CPUs

Region of Interest Statistics

CPU 0 cumulative IPC: 1.25287 instructions: 50000000 cycles: 39908453
L1D TOTAL     ACCESS:   20540868  HIT:   18462002  MISS:    2078866
L1D LOAD      ACCESS:    7430857  HIT:    6385303  MISS:    1045554
L1D RFO       ACCESS:    6198013  HIT:    5911271  MISS:     286742
L1D PREFETCH  ACCESS:    6911998  HIT:    6165428  MISS:     746570
L1D WRITEBACK ACCESS:          0  HIT:          0  MISS:          0
L1D PREFETCH  REQUESTED:    7488710  ISSUED:    7385947  USEFUL:     189279  USELESS:     557385
L1D AVERAGE MISS LATENCY: 18.3976 cycles
L1I TOTAL     ACCESS:   30137555  HIT:   26637681  MISS:    3499874
L1I LOAD      ACCESS:    9461255  HIT:    9420486  MISS:      40769
L1I RFO       ACCESS:          0  HIT:          0  MISS:          0
L1I PREFETCH  ACCESS:   20676300  HIT:   17217195  MISS:    3459105
L1I WRITEBACK ACCESS:          0  HIT:          0  MISS:          0
L1I PREFETCH  REQUESTED:   25187634  ISSUED:   25187634  USEFUL:    2955793  USELESS:     503339
L1I AVERAGE MISS LATENCY: 18.1435 cycles
L2C TOTAL     ACCESS:    7870820  HIT:    7219073  MISS:     651747
L2C LOAD      ACCESS:     875839  HIT:     760457  MISS:     115382
L2C RFO       ACCESS:     283922  HIT:     222315  MISS:      61607
L2C PREFETCH  ACCESS:    6095568  HIT:    5623912  MISS:     471656
L2C WRITEBACK ACCESS:     615491  HIT:     612389  MISS:       3102
L2C PREFETCH  REQUESTED:    6514550  ISSUED:    6502391  USEFUL:      11494  USELESS:     459595
L2C AVERAGE MISS LATENCY: 34.8063 cycles
LLC TOTAL     ACCESS:    2260343  HIT:    2239551  MISS:      20792
LLC LOAD      ACCESS:     115199  HIT:     112453  MISS:       2746
LLC RFO       ACCESS:      61591  HIT:      59872  MISS:       1719
LLC PREFETCH  ACCESS:    1973188  HIT:    1956962  MISS:      16226
LLC WRITEBACK ACCESS:     110365  HIT:     110264  MISS:        101
LLC PREFETCH  REQUESTED:          0  ISSUED:          0  USEFUL:        799  USELESS:      14261
LLC AVERAGE MISS LATENCY: 146.847 cycles
Major fault: 0 Minor fault: 2041
CPU 0 L1I EPI prefetcher final stats
CPU 0 L1D next line prefetcher final stats

DRAM Statistics
 CHANNEL 0
 RQ ROW_BUFFER_HIT:       6439  ROW_BUFFER_MISS:      14252
 DBUS_CONGESTED:       6571
 WQ ROW_BUFFER_HIT:        155  ROW_BUFFER_MISS:       2394  FULL:          0

 AVG_CONGESTED_CYCLE: 5

CPU 0 Branch Prediction Accuracy: 92.4795% MPKI: 14.0962 Average ROB Occupancy at Mispredict: 66.6152

Branch types
NOT_BRANCH: 40627801 81.2556%
BRANCH_DIRECT_JUMP: 490940 0.98188%
BRANCH_INDIRECT: 175853 0.351706%
BRANCH_CONDITIONAL: 6321388 12.6428%
BRANCH_DIRECT_CALL: 1002065 2.00413%
BRANCH_INDIRECT_CALL: 189782 0.379564%
BRANCH_RETURN: 1191846 2.38369%
BRANCH_OTHER: 0 0%

