Initialize SIGNATURE TABLE
ST_SET: 1
ST_WAY: 256
ST_TAG_BIT: 16
ST_TAG_MASK: ffff

Initialize PATTERN TABLE
PT_SET: 512
PT_WAY: 4
SIG_DELTA_BIT: 7
C_SIG_BIT: 4
C_DELTA_BIT: 4

Initialize PREFETCH FILTER
FILTER_SET: 1024

*** ChampSim Multicore Out-of-Order Simulator ***

Warmup Instructions: 50000000
Simulation Instructions: 50000000
Number of CPUs: 1
LLC sets: 2048
LLC ways: 16
Off-chip DRAM Size: 4096 MB Channels: 1 Width: 64-bit Data Rate: 3200 MT/s

CPU 0 runs /home/yuc621/Champsim/dpc3_traces/server_024.champsimtrace.xz
CPU 0 Bimodal branch predictor
CPU 0 EPI prefetcher
CPU 0 L1D next line prefetcher
Heartbeat CPU 0 instructions: 10000000 cycles: 3498999 heartbeat IPC: 2.85796 cumulative IPC: 2.85796 (Simulation time: 0 hr 0 min 28 sec) 
Heartbeat CPU 0 instructions: 20000002 cycles: 6990907 heartbeat IPC: 2.86376 cumulative IPC: 2.86086 (Simulation time: 0 hr 0 min 55 sec) 
Heartbeat CPU 0 instructions: 30000000 cycles: 10492954 heartbeat IPC: 2.85547 cumulative IPC: 2.85906 (Simulation time: 0 hr 1 min 23 sec) 
Heartbeat CPU 0 instructions: 40000000 cycles: 13992365 heartbeat IPC: 2.85762 cumulative IPC: 2.8587 (Simulation time: 0 hr 1 min 50 sec) 
Heartbeat CPU 0 instructions: 50000001 cycles: 17481401 heartbeat IPC: 2.86612 cumulative IPC: 2.86018 (Simulation time: 0 hr 2 min 18 sec) 

Warmup complete CPU 0 instructions: 50000001 cycles: 17481401 (Simulation time: 0 hr 2 min 18 sec) 

Heartbeat CPU 0 instructions: 60000000 cycles: 25318601 heartbeat IPC: 1.27597 cumulative IPC: 1.27597 (Simulation time: 0 hr 2 min 42 sec) 
Heartbeat CPU 0 instructions: 70000000 cycles: 33187929 heartbeat IPC: 1.27076 cumulative IPC: 1.27336 (Simulation time: 0 hr 3 min 5 sec) 
*** Reached end of trace for Core: 0 Repeating trace: /home/yuc621/Champsim/dpc3_traces/server_024.champsimtrace.xz
Heartbeat CPU 0 instructions: 80000003 cycles: 41039521 heartbeat IPC: 1.27363 cumulative IPC: 1.27345 (Simulation time: 0 hr 3 min 29 sec) 
Heartbeat CPU 0 instructions: 90000000 cycles: 48925878 heartbeat IPC: 1.26801 cumulative IPC: 1.27208 (Simulation time: 0 hr 3 min 53 sec) 
Heartbeat CPU 0 instructions: 100000002 cycles: 56779983 heartbeat IPC: 1.27322 cumulative IPC: 1.27231 (Simulation time: 0 hr 4 min 17 sec) 
Finished CPU 0 instructions: 50000001 cycles: 39298582 cumulative IPC: 1.27231 (Simulation time: 0 hr 4 min 17 sec) 

ChampSim completed all CPUs

Region of Interest Statistics

CPU 0 cumulative IPC: 1.27231 instructions: 50000001 cycles: 39298582
L1D TOTAL     ACCESS:   21140810  HIT:   19621472  MISS:    1519338
L1D LOAD      ACCESS:    7639793  HIT:    6963677  MISS:     676116
L1D RFO       ACCESS:    6177271  HIT:    5903263  MISS:     274008
L1D PREFETCH  ACCESS:    7323746  HIT:    6754532  MISS:     569214
L1D WRITEBACK ACCESS:          0  HIT:          0  MISS:          0
L1D PREFETCH  REQUESTED:    7699369  ISSUED:    7593824  USEFUL:     140665  USELESS:     428552
L1D AVERAGE MISS LATENCY: 24.8096 cycles
L1I TOTAL     ACCESS:   28423432  HIT:   25385858  MISS:    3037574
L1I LOAD      ACCESS:    9069338  HIT:    9024770  MISS:      44568
L1I RFO       ACCESS:          0  HIT:          0  MISS:          0
L1I PREFETCH  ACCESS:   19354094  HIT:   16361088  MISS:    2993006
L1I WRITEBACK ACCESS:          0  HIT:          0  MISS:          0
L1I PREFETCH  REQUESTED:   24225285  ISSUED:   24225285  USEFUL:    2506034  USELESS:     486952
L1I AVERAGE MISS LATENCY: 19.2796 cycles
L2C TOTAL     ACCESS:    6165516  HIT:    5436906  MISS:     728610
L2C LOAD      ACCESS:     620730  HIT:     504449  MISS:     116281
L2C RFO       ACCESS:     272184  HIT:     185280  MISS:      86904
L2C PREFETCH  ACCESS:    4752327  HIT:    4229945  MISS:     522382
L2C WRITEBACK ACCESS:     520275  HIT:     517232  MISS:       3043
L2C PREFETCH  REQUESTED:    4782792  ISSUED:    4780043  USEFUL:      14042  USELESS:     507584
L2C AVERAGE MISS LATENCY: 43.5709 cycles
LLC TOTAL     ACCESS:    2152244  HIT:    2095429  MISS:      56815
LLC LOAD      ACCESS:     116015  HIT:     110398  MISS:       5617
LLC RFO       ACCESS:      86894  HIT:      64702  MISS:      22192
LLC PREFETCH  ACCESS:    1810263  HIT:    1781572  MISS:      28691
LLC WRITEBACK ACCESS:     139072  HIT:     138757  MISS:        315
LLC PREFETCH  REQUESTED:          0  ISSUED:          0  USEFUL:       2160  USELESS:      26673
LLC AVERAGE MISS LATENCY: 191.741 cycles
Major fault: 0 Minor fault: 2366
CPU 0 L1I EPI prefetcher final stats
CPU 0 L1D next line prefetcher final stats

DRAM Statistics
 CHANNEL 0
 RQ ROW_BUFFER_HIT:      18683  ROW_BUFFER_MISS:      37799
 DBUS_CONGESTED:      37633
 WQ ROW_BUFFER_HIT:       2527  ROW_BUFFER_MISS:      22866  FULL:          0

 AVG_CONGESTED_CYCLE: 6

CPU 0 Branch Prediction Accuracy: 91.8907% MPKI: 14.8338 Average ROB Occupancy at Mispredict: 61.6813

Branch types
NOT_BRANCH: 40853572 81.7071%
BRANCH_DIRECT_JUMP: 566812 1.13362%
BRANCH_INDIRECT: 197171 0.394342%
BRANCH_CONDITIONAL: 6308397 12.6168%
BRANCH_DIRECT_CALL: 876399 1.7528%
BRANCH_INDIRECT_CALL: 160491 0.320982%
BRANCH_RETURN: 1036885 2.07377%
BRANCH_OTHER: 0 0%

