Initialize SIGNATURE TABLE
ST_SET: 1
ST_WAY: 256
ST_TAG_BIT: 16
ST_TAG_MASK: ffff

Initialize PATTERN TABLE
PT_SET: 512
PT_WAY: 4
SIG_DELTA_BIT: 7
C_SIG_BIT: 4
C_DELTA_BIT: 4

Initialize PREFETCH FILTER
FILTER_SET: 1024

*** ChampSim Multicore Out-of-Order Simulator ***

Warmup Instructions: 50000000
Simulation Instructions: 50000000
Number of CPUs: 1
LLC sets: 2048
LLC ways: 16
Off-chip DRAM Size: 4096 MB Channels: 1 Width: 64-bit Data Rate: 3200 MT/s

CPU 0 runs /home/yuc621/Champsim/dpc3_traces/server_012.champsimtrace.xz
CPU 0 Bimodal branch predictor
CPU 0 EPI prefetcher
CPU 0 L1D next line prefetcher
Heartbeat CPU 0 instructions: 10000002 cycles: 3195692 heartbeat IPC: 3.12921 cumulative IPC: 3.12921 (Simulation time: 0 hr 0 min 26 sec) 
Heartbeat CPU 0 instructions: 20000002 cycles: 6395021 heartbeat IPC: 3.12566 cumulative IPC: 3.12743 (Simulation time: 0 hr 0 min 52 sec) 
Heartbeat CPU 0 instructions: 30000001 cycles: 9594542 heartbeat IPC: 3.12547 cumulative IPC: 3.12678 (Simulation time: 0 hr 1 min 18 sec) 
Heartbeat CPU 0 instructions: 40000000 cycles: 12800043 heartbeat IPC: 3.11964 cumulative IPC: 3.12499 (Simulation time: 0 hr 1 min 44 sec) 
Heartbeat CPU 0 instructions: 50000003 cycles: 15998548 heartbeat IPC: 3.12646 cumulative IPC: 3.12528 (Simulation time: 0 hr 2 min 11 sec) 

Warmup complete CPU 0 instructions: 50000003 cycles: 15998548 (Simulation time: 0 hr 2 min 11 sec) 

Heartbeat CPU 0 instructions: 60000002 cycles: 24168274 heartbeat IPC: 1.22403 cumulative IPC: 1.22403 (Simulation time: 0 hr 2 min 33 sec) 
Heartbeat CPU 0 instructions: 70000000 cycles: 32265679 heartbeat IPC: 1.23496 cumulative IPC: 1.22947 (Simulation time: 0 hr 2 min 56 sec) 
Heartbeat CPU 0 instructions: 80000003 cycles: 40365027 heartbeat IPC: 1.23467 cumulative IPC: 1.2312 (Simulation time: 0 hr 3 min 19 sec) 
Heartbeat CPU 0 instructions: 90000001 cycles: 48702382 heartbeat IPC: 1.19942 cumulative IPC: 1.2231 (Simulation time: 0 hr 3 min 42 sec) 
Heartbeat CPU 0 instructions: 100000003 cycles: 56917206 heartbeat IPC: 1.21731 cumulative IPC: 1.22194 (Simulation time: 0 hr 4 min 5 sec) 
Finished CPU 0 instructions: 50000000 cycles: 40918658 cumulative IPC: 1.22194 (Simulation time: 0 hr 4 min 5 sec) 

ChampSim completed all CPUs

Region of Interest Statistics

CPU 0 cumulative IPC: 1.22194 instructions: 50000000 cycles: 40918658
L1D TOTAL     ACCESS:   18175006  HIT:   17130885  MISS:    1044121
L1D LOAD      ACCESS:    6712548  HIT:    6229912  MISS:     482636
L1D RFO       ACCESS:    4987279  HIT:    4905119  MISS:      82160
L1D PREFETCH  ACCESS:    6475179  HIT:    5995854  MISS:     479325
L1D WRITEBACK ACCESS:          0  HIT:          0  MISS:          0
L1D PREFETCH  REQUESTED:    6752652  ISSUED:    6650674  USEFUL:     138185  USELESS:     341161
L1D AVERAGE MISS LATENCY: 39.9647 cycles
L1I TOTAL     ACCESS:   31268826  HIT:   29515565  MISS:    1753261
L1I LOAD      ACCESS:    8700225  HIT:    8642559  MISS:      57666
L1I RFO       ACCESS:          0  HIT:          0  MISS:          0
L1I PREFETCH  ACCESS:   22568601  HIT:   20873006  MISS:    1695595
L1I WRITEBACK ACCESS:          0  HIT:          0  MISS:          0
L1I PREFETCH  REQUESTED:   28202114  ISSUED:   28202114  USEFUL:    1316827  USELESS:     378750
L1I AVERAGE MISS LATENCY: 32.818 cycles
L2C TOTAL     ACCESS:    3606260  HIT:    2348358  MISS:    1257902
L2C LOAD      ACCESS:     495936  HIT:     241050  MISS:     254886
L2C RFO       ACCESS:      80820  HIT:      31610  MISS:      49210
L2C PREFETCH  ACCESS:    2753909  HIT:    1801538  MISS:     952371
L2C WRITEBACK ACCESS:     275595  HIT:     274160  MISS:       1435
L2C PREFETCH  REQUESTED:    3486915  ISSUED:    3481544  USEFUL:      26677  USELESS:     925134
L2C AVERAGE MISS LATENCY: 46.0961 cycles
LLC TOTAL     ACCESS:    2433580  HIT:    2273483  MISS:     160097
LLC LOAD      ACCESS:     254257  HIT:     234403  MISS:      19854
LLC RFO       ACCESS:      49207  HIT:      38889  MISS:      10318
LLC PREFETCH  ACCESS:    1965135  HIT:    1835680  MISS:     129455
LLC WRITEBACK ACCESS:     164981  HIT:     164511  MISS:        470
LLC PREFETCH  REQUESTED:          0  ISSUED:          0  USEFUL:      11387  USELESS:     116889
LLC AVERAGE MISS LATENCY: 171.474 cycles
Major fault: 0 Minor fault: 5605
CPU 0 L1I EPI prefetcher final stats
CPU 0 L1D next line prefetcher final stats

DRAM Statistics
 CHANNEL 0
 RQ ROW_BUFFER_HIT:      27153  ROW_BUFFER_MISS:     132447
 DBUS_CONGESTED:      68600
 WQ ROW_BUFFER_HIT:      10630  ROW_BUFFER_MISS:      50168  FULL:          0

 AVG_CONGESTED_CYCLE: 5

CPU 0 Branch Prediction Accuracy: 93.0901% MPKI: 12.8507 Average ROB Occupancy at Mispredict: 56.0739

Branch types
NOT_BRANCH: 40700943 81.4019%
BRANCH_DIRECT_JUMP: 469808 0.939616%
BRANCH_INDIRECT: 153732 0.307464%
BRANCH_CONDITIONAL: 6944056 13.8881%
BRANCH_DIRECT_CALL: 679877 1.35975%
BRANCH_INDIRECT_CALL: 168745 0.33749%
BRANCH_RETURN: 882491 1.76498%
BRANCH_OTHER: 0 0%

