Initialize SIGNATURE TABLE
ST_SET: 1
ST_WAY: 256
ST_TAG_BIT: 16
ST_TAG_MASK: ffff

Initialize PATTERN TABLE
PT_SET: 512
PT_WAY: 4
SIG_DELTA_BIT: 7
C_SIG_BIT: 4
C_DELTA_BIT: 4

Initialize PREFETCH FILTER
FILTER_SET: 1024

*** ChampSim Multicore Out-of-Order Simulator ***

Warmup Instructions: 50000000
Simulation Instructions: 50000000
Number of CPUs: 1
LLC sets: 2048
LLC ways: 16
Off-chip DRAM Size: 4096 MB Channels: 1 Width: 64-bit Data Rate: 3200 MT/s

CPU 0 runs /home/yuc621/Champsim/dpc3_traces/server_031.champsimtrace.xz
CPU 0 Bimodal branch predictor
CPU 0 EPI prefetcher
CPU 0 L1D next line prefetcher
Heartbeat CPU 0 instructions: 10000003 cycles: 3519881 heartbeat IPC: 2.84101 cumulative IPC: 2.84101 (Simulation time: 0 hr 0 min 28 sec) 
Heartbeat CPU 0 instructions: 20000002 cycles: 7038825 heartbeat IPC: 2.84176 cumulative IPC: 2.84138 (Simulation time: 0 hr 0 min 56 sec) 
Heartbeat CPU 0 instructions: 30000002 cycles: 10557931 heartbeat IPC: 2.84163 cumulative IPC: 2.84147 (Simulation time: 0 hr 1 min 25 sec) 
Heartbeat CPU 0 instructions: 40000003 cycles: 14072215 heartbeat IPC: 2.84553 cumulative IPC: 2.84248 (Simulation time: 0 hr 1 min 53 sec) 
Heartbeat CPU 0 instructions: 50000001 cycles: 17588739 heartbeat IPC: 2.84372 cumulative IPC: 2.84273 (Simulation time: 0 hr 2 min 21 sec) 

Warmup complete CPU 0 instructions: 50000001 cycles: 17588739 (Simulation time: 0 hr 2 min 21 sec) 

Heartbeat CPU 0 instructions: 60000001 cycles: 26086666 heartbeat IPC: 1.17676 cumulative IPC: 1.17676 (Simulation time: 0 hr 2 min 46 sec) 
Heartbeat CPU 0 instructions: 70000002 cycles: 34632604 heartbeat IPC: 1.17015 cumulative IPC: 1.17344 (Simulation time: 0 hr 3 min 11 sec) 
*** Reached end of trace for Core: 0 Repeating trace: /home/yuc621/Champsim/dpc3_traces/server_031.champsimtrace.xz
Heartbeat CPU 0 instructions: 80000000 cycles: 43041956 heartbeat IPC: 1.18915 cumulative IPC: 1.17863 (Simulation time: 0 hr 3 min 37 sec) 
Heartbeat CPU 0 instructions: 90000003 cycles: 51479253 heartbeat IPC: 1.18521 cumulative IPC: 1.18027 (Simulation time: 0 hr 4 min 2 sec) 
Heartbeat CPU 0 instructions: 100000000 cycles: 59873797 heartbeat IPC: 1.19125 cumulative IPC: 1.18245 (Simulation time: 0 hr 4 min 27 sec) 
Finished CPU 0 instructions: 50000000 cycles: 42285060 cumulative IPC: 1.18245 (Simulation time: 0 hr 4 min 27 sec) 

ChampSim completed all CPUs

Region of Interest Statistics

CPU 0 cumulative IPC: 1.18245 instructions: 50000000 cycles: 42285060
L1D TOTAL     ACCESS:   20987807  HIT:   19081138  MISS:    1906669
L1D LOAD      ACCESS:    7469246  HIT:    6602150  MISS:     867096
L1D RFO       ACCESS:    6357547  HIT:    6066193  MISS:     291354
L1D PREFETCH  ACCESS:    7161014  HIT:    6412795  MISS:     748219
L1D WRITEBACK ACCESS:          0  HIT:          0  MISS:          0
L1D PREFETCH  REQUESTED:    7541192  ISSUED:    7462701  USEFUL:     180879  USELESS:     567342
L1D AVERAGE MISS LATENCY: 21.9175 cycles
L1I TOTAL     ACCESS:   29651273  HIT:   26110352  MISS:    3540921
L1I LOAD      ACCESS:    9371293  HIT:    9339652  MISS:      31641
L1I RFO       ACCESS:          0  HIT:          0  MISS:          0
L1I PREFETCH  ACCESS:   20279980  HIT:   16770700  MISS:    3509280
L1I WRITEBACK ACCESS:          0  HIT:          0  MISS:          0
L1I PREFETCH  REQUESTED:   25080216  ISSUED:   25080216  USEFUL:    3015919  USELESS:     493360
L1I AVERAGE MISS LATENCY: 17.8534 cycles
L2C TOTAL     ACCESS:    7706491  HIT:    7147853  MISS:     558638
L2C LOAD      ACCESS:     803781  HIT:     692757  MISS:     111024
L2C RFO       ACCESS:     289622  HIT:     251085  MISS:      38537
L2C PREFETCH  ACCESS:    5996158  HIT:    5587623  MISS:     408535
L2C WRITEBACK ACCESS:     616930  HIT:     616388  MISS:        542
L2C PREFETCH  REQUESTED:    6695618  ISSUED:    6678978  USEFUL:       5105  USELESS:     402632
L2C AVERAGE MISS LATENCY: 46.0844 cycles
LLC TOTAL     ACCESS:    2267509  HIT:    2187519  MISS:      79990
LLC LOAD      ACCESS:     110973  HIT:      92631  MISS:      18342
LLC RFO       ACCESS:      38534  HIT:      34376  MISS:       4158
LLC PREFETCH  ACCESS:    2043384  HIT:    1986449  MISS:      56935
LLC WRITEBACK ACCESS:      74618  HIT:      74063  MISS:        555
LLC PREFETCH  REQUESTED:          0  ISSUED:          0  USEFUL:       2660  USELESS:      54015
LLC AVERAGE MISS LATENCY: 158.671 cycles
Major fault: 0 Minor fault: 6043
CPU 0 L1I EPI prefetcher final stats
CPU 0 L1D next line prefetcher final stats

DRAM Statistics
 CHANNEL 0
 RQ ROW_BUFFER_HIT:      21815  ROW_BUFFER_MISS:      57616
 DBUS_CONGESTED:      33824
 WQ ROW_BUFFER_HIT:        770  ROW_BUFFER_MISS:       5171  FULL:          0

 AVG_CONGESTED_CYCLE: 5

CPU 0 Branch Prediction Accuracy: 91.822% MPKI: 15.2833 Average ROB Occupancy at Mispredict: 67.5448

Branch types
NOT_BRANCH: 40655489 81.311%
BRANCH_DIRECT_JUMP: 546483 1.09297%
BRANCH_INDIRECT: 172432 0.344864%
BRANCH_CONDITIONAL: 6207553 12.4151%
BRANCH_DIRECT_CALL: 1018496 2.03699%
BRANCH_INDIRECT_CALL: 190373 0.380746%
BRANCH_RETURN: 1208856 2.41771%
BRANCH_OTHER: 0 0%

