Initialize SIGNATURE TABLE
ST_SET: 1
ST_WAY: 256
ST_TAG_BIT: 16
ST_TAG_MASK: ffff

Initialize PATTERN TABLE
PT_SET: 512
PT_WAY: 4
SIG_DELTA_BIT: 7
C_SIG_BIT: 4
C_DELTA_BIT: 4

Initialize PREFETCH FILTER
FILTER_SET: 1024

*** ChampSim Multicore Out-of-Order Simulator ***

Warmup Instructions: 50000000
Simulation Instructions: 50000000
Number of CPUs: 1
LLC sets: 2048
LLC ways: 16
Off-chip DRAM Size: 4096 MB Channels: 1 Width: 64-bit Data Rate: 3200 MT/s

CPU 0 runs /home/yuc621/Champsim/dpc3_traces/spec_gobmk_002.champsimtrace.xz
CPU 0 Bimodal branch predictor
CPU 0 EPI prefetcher
CPU 0 L1D next line prefetcher
Heartbeat CPU 0 instructions: 10000001 cycles: 3287548 heartbeat IPC: 3.04178 cumulative IPC: 3.04178 (Simulation time: 0 hr 0 min 24 sec) 
Heartbeat CPU 0 instructions: 20000000 cycles: 6619247 heartbeat IPC: 3.00147 cumulative IPC: 3.02149 (Simulation time: 0 hr 0 min 49 sec) 
Heartbeat CPU 0 instructions: 30000000 cycles: 9957267 heartbeat IPC: 2.99579 cumulative IPC: 3.01287 (Simulation time: 0 hr 1 min 15 sec) 
Heartbeat CPU 0 instructions: 40000000 cycles: 13266740 heartbeat IPC: 3.02163 cumulative IPC: 3.01506 (Simulation time: 0 hr 1 min 41 sec) 
Heartbeat CPU 0 instructions: 50000003 cycles: 16530295 heartbeat IPC: 3.06414 cumulative IPC: 3.02475 (Simulation time: 0 hr 2 min 7 sec) 

Warmup complete CPU 0 instructions: 50000003 cycles: 16530295 (Simulation time: 0 hr 2 min 7 sec) 

Heartbeat CPU 0 instructions: 60000001 cycles: 25087772 heartbeat IPC: 1.16857 cumulative IPC: 1.16857 (Simulation time: 0 hr 2 min 33 sec) 
Heartbeat CPU 0 instructions: 70000003 cycles: 33608932 heartbeat IPC: 1.17355 cumulative IPC: 1.17105 (Simulation time: 0 hr 2 min 59 sec) 
Heartbeat CPU 0 instructions: 80000002 cycles: 42120343 heartbeat IPC: 1.17489 cumulative IPC: 1.17233 (Simulation time: 0 hr 3 min 25 sec) 
Heartbeat CPU 0 instructions: 90000001 cycles: 50580529 heartbeat IPC: 1.18201 cumulative IPC: 1.17473 (Simulation time: 0 hr 3 min 49 sec) 
Heartbeat CPU 0 instructions: 100000003 cycles: 59254420 heartbeat IPC: 1.15289 cumulative IPC: 1.1703 (Simulation time: 0 hr 4 min 11 sec) 
Finished CPU 0 instructions: 50000000 cycles: 42724125 cumulative IPC: 1.1703 (Simulation time: 0 hr 4 min 11 sec) 

ChampSim completed all CPUs

Region of Interest Statistics

CPU 0 cumulative IPC: 1.1703 instructions: 50000000 cycles: 42724125
L1D TOTAL     ACCESS:   18114778  HIT:   17991631  MISS:     123147
L1D LOAD      ACCESS:    6894751  HIT:    6860487  MISS:      34264
L1D RFO       ACCESS:    4402410  HIT:    4359753  MISS:      42657
L1D PREFETCH  ACCESS:    6817617  HIT:    6771391  MISS:      46226
L1D WRITEBACK ACCESS:          0  HIT:          0  MISS:          0
L1D PREFETCH  REQUESTED:    6897631  ISSUED:    6830625  USEFUL:      17153  USELESS:      29254
L1D AVERAGE MISS LATENCY: 50.1803 cycles
L1I TOTAL     ACCESS:   60979589  HIT:   58610189  MISS:    2369400
L1I LOAD      ACCESS:    8944610  HIT:    8847884  MISS:      96726
L1I RFO       ACCESS:          0  HIT:          0  MISS:          0
L1I PREFETCH  ACCESS:   52034979  HIT:   49762305  MISS:    2272674
L1I WRITEBACK ACCESS:          0  HIT:          0  MISS:          0
L1I PREFETCH  REQUESTED:   68150628  ISSUED:   68150628  USEFUL:     991651  USELESS:    1281048
L1I AVERAGE MISS LATENCY: 14.7175 cycles
L2C TOTAL     ACCESS:    3973584  HIT:    3935104  MISS:      38480
L2C LOAD      ACCESS:     116285  HIT:     102491  MISS:      13794
L2C RFO       ACCESS:      42531  HIT:      39542  MISS:       2989
L2C PREFETCH  ACCESS:    3740563  HIT:    3719013  MISS:      21550
L2C WRITEBACK ACCESS:      74205  HIT:      74058  MISS:        147
L2C PREFETCH  REQUESTED:    3600282  ISSUED:    3599948  USEFUL:       2238  USELESS:      19661
L2C AVERAGE MISS LATENCY: 121.367 cycles
LLC TOTAL     ACCESS:     109053  HIT:      70022  MISS:      39031
LLC LOAD      ACCESS:      13794  HIT:       5351  MISS:       8443
LLC RFO       ACCESS:       2989  HIT:       1386  MISS:       1603
LLC PREFETCH  ACCESS:      74111  HIT:      45776  MISS:      28335
LLC WRITEBACK ACCESS:      18159  HIT:      17509  MISS:        650
LLC PREFETCH  REQUESTED:          0  ISSUED:          0  USEFUL:       2622  USELESS:      24735
LLC AVERAGE MISS LATENCY: 186.339 cycles
Major fault: 0 Minor fault: 2777
CPU 0 L1I EPI prefetcher final stats
CPU 0 L1D next line prefetcher final stats

DRAM Statistics
 CHANNEL 0
 RQ ROW_BUFFER_HIT:       3049  ROW_BUFFER_MISS:      35332
 DBUS_CONGESTED:      24207
 WQ ROW_BUFFER_HIT:        746  ROW_BUFFER_MISS:      15052  FULL:          0

 AVG_CONGESTED_CYCLE: 5

CPU 0 Branch Prediction Accuracy: 86.4799% MPKI: 23.0751 Average ROB Occupancy at Mispredict: 28.2522

Branch types
NOT_BRANCH: 41466069 82.9321%
BRANCH_DIRECT_JUMP: 464313 0.928626%
BRANCH_INDIRECT: 32 6.4e-05%
BRANCH_CONDITIONAL: 7069456 14.1389%
BRANCH_DIRECT_CALL: 499587 0.999174%
BRANCH_INDIRECT_CALL: 342 0.000684%
BRANCH_RETURN: 499906 0.999812%
BRANCH_OTHER: 0 0%

