Initialize SIGNATURE TABLE
ST_SET: 1
ST_WAY: 256
ST_TAG_BIT: 16
ST_TAG_MASK: ffff

Initialize PATTERN TABLE
PT_SET: 512
PT_WAY: 4
SIG_DELTA_BIT: 7
C_SIG_BIT: 4
C_DELTA_BIT: 4

Initialize PREFETCH FILTER
FILTER_SET: 1024

*** ChampSim Multicore Out-of-Order Simulator ***

Warmup Instructions: 50000000
Simulation Instructions: 50000000
Number of CPUs: 1
LLC sets: 2048
LLC ways: 16
Off-chip DRAM Size: 4096 MB Channels: 1 Width: 64-bit Data Rate: 3200 MT/s

CPU 0 runs /home/yuc621/Champsim/dpc3_traces/spec_gcc_003.champsimtrace.xz
CPU 0 Bimodal branch predictor
CPU 0 EPI prefetcher
CPU 0 L1D next line prefetcher
Heartbeat CPU 0 instructions: 10000001 cycles: 3496658 heartbeat IPC: 2.85987 cumulative IPC: 2.85987 (Simulation time: 0 hr 0 min 22 sec) 
Heartbeat CPU 0 instructions: 20000000 cycles: 6968781 heartbeat IPC: 2.88008 cumulative IPC: 2.86994 (Simulation time: 0 hr 0 min 44 sec) 
Heartbeat CPU 0 instructions: 30000002 cycles: 10423596 heartbeat IPC: 2.89451 cumulative IPC: 2.87809 (Simulation time: 0 hr 1 min 6 sec) 
Heartbeat CPU 0 instructions: 40000000 cycles: 13909063 heartbeat IPC: 2.86906 cumulative IPC: 2.87582 (Simulation time: 0 hr 1 min 28 sec) 
Heartbeat CPU 0 instructions: 50000001 cycles: 17219628 heartbeat IPC: 3.02063 cumulative IPC: 2.90366 (Simulation time: 0 hr 1 min 50 sec) 

Warmup complete CPU 0 instructions: 50000001 cycles: 17219628 (Simulation time: 0 hr 1 min 50 sec) 

Heartbeat CPU 0 instructions: 60000000 cycles: 58144605 heartbeat IPC: 0.24435 cumulative IPC: 0.24435 (Simulation time: 0 hr 2 min 43 sec) 
Heartbeat CPU 0 instructions: 70000000 cycles: 101910127 heartbeat IPC: 0.22849 cumulative IPC: 0.236154 (Simulation time: 0 hr 3 min 39 sec) 
Heartbeat CPU 0 instructions: 80000002 cycles: 146410977 heartbeat IPC: 0.224715 cumulative IPC: 0.232214 (Simulation time: 0 hr 4 min 36 sec) 
Heartbeat CPU 0 instructions: 90000002 cycles: 183832157 heartbeat IPC: 0.267228 cumulative IPC: 0.240078 (Simulation time: 0 hr 5 min 26 sec) 
Heartbeat CPU 0 instructions: 100000001 cycles: 230722888 heartbeat IPC: 0.213262 cumulative IPC: 0.234188 (Simulation time: 0 hr 6 min 24 sec) 
Finished CPU 0 instructions: 50000000 cycles: 213503260 cumulative IPC: 0.234188 (Simulation time: 0 hr 6 min 24 sec) 

ChampSim completed all CPUs

Region of Interest Statistics

CPU 0 cumulative IPC: 0.234188 instructions: 50000000 cycles: 213503260
L1D TOTAL     ACCESS:   17454918  HIT:   11730364  MISS:    5724554
L1D LOAD      ACCESS:    4838682  HIT:    4456553  MISS:     382129
L1D RFO       ACCESS:    8262420  HIT:    3210972  MISS:    5051448
L1D PREFETCH  ACCESS:    4353816  HIT:    4062839  MISS:     290977
L1D WRITEBACK ACCESS:          0  HIT:          0  MISS:          0
L1D PREFETCH  REQUESTED:    4858376  ISSUED:    4801676  USEFUL:     153290  USELESS:     137867
L1D AVERAGE MISS LATENCY: 504.757 cycles
L1I TOTAL     ACCESS:   29952882  HIT:   28711708  MISS:    1241174
L1I LOAD      ACCESS:   11304162  HIT:   11254502  MISS:      49660
L1I RFO       ACCESS:          0  HIT:          0  MISS:          0
L1I PREFETCH  ACCESS:   18648720  HIT:   17457206  MISS:    1191514
L1I WRITEBACK ACCESS:          0  HIT:          0  MISS:          0
L1I PREFETCH  REQUESTED:   26602437  ISSUED:   26602437  USEFUL:     780044  USELESS:     411393
L1I AVERAGE MISS LATENCY: 68.3354 cycles
L2C TOTAL     ACCESS:   12468050  HIT:    6404825  MISS:    6063225
L2C LOAD      ACCESS:     234106  HIT:      63687  MISS:     170419
L2C RFO       ACCESS:    5049853  HIT:       6589  MISS:    5043264
L2C PREFETCH  ACCESS:    2026196  HIT:    1177076  MISS:     849120
L2C WRITEBACK ACCESS:    5157895  HIT:    5157473  MISS:        422
L2C PREFETCH  REQUESTED:    2270072  ISSUED:    2270014  USEFUL:      24583  USELESS:     821606
L2C AVERAGE MISS LATENCY: 475.993 cycles
LLC TOTAL     ACCESS:   11992393  HIT:    7238155  MISS:    4754238
LLC LOAD      ACCESS:     170387  HIT:     127678  MISS:      42709
LLC RFO       ACCESS:    5043263  HIT:     612269  MISS:    4430994
LLC PREFETCH  ACCESS:    1645022  HIT:    1364487  MISS:     280535
LLC WRITEBACK ACCESS:    5133721  HIT:    5133721  MISS:          0
LLC PREFETCH  REQUESTED:          0  ISSUED:          0  USEFUL:      12419  USELESS:     267981
LLC AVERAGE MISS LATENCY: 576.921 cycles
Major fault: 0 Minor fault: 2821
CPU 0 L1I EPI prefetcher final stats
CPU 0 L1D next line prefetcher final stats

DRAM Statistics
 CHANNEL 0
 RQ ROW_BUFFER_HIT:    1439123  ROW_BUFFER_MISS:    3315075
 DBUS_CONGESTED:    8240435
 WQ ROW_BUFFER_HIT:    1187668  ROW_BUFFER_MISS:    3272385  FULL:          0

 AVG_CONGESTED_CYCLE: 6

CPU 0 Branch Prediction Accuracy: 96.3569% MPKI: 8.52058 Average ROB Occupancy at Mispredict: 56.9692

Branch types
NOT_BRANCH: 38305856 76.6117%
BRANCH_DIRECT_JUMP: 384281 0.768562%
BRANCH_INDIRECT: 71949 0.143898%
BRANCH_CONDITIONAL: 9879825 19.7597%
BRANCH_DIRECT_CALL: 650586 1.30117%
BRANCH_INDIRECT_CALL: 28456 0.056912%
BRANCH_RETURN: 679046 1.35809%
BRANCH_OTHER: 0 0%

