Initialize SIGNATURE TABLE
ST_SET: 1
ST_WAY: 256
ST_TAG_BIT: 16
ST_TAG_MASK: ffff

Initialize PATTERN TABLE
PT_SET: 512
PT_WAY: 4
SIG_DELTA_BIT: 7
C_SIG_BIT: 4
C_DELTA_BIT: 4

Initialize PREFETCH FILTER
FILTER_SET: 1024

*** ChampSim Multicore Out-of-Order Simulator ***

Warmup Instructions: 50000000
Simulation Instructions: 50000000
Number of CPUs: 1
LLC sets: 2048
LLC ways: 16
Off-chip DRAM Size: 4096 MB Channels: 1 Width: 64-bit Data Rate: 3200 MT/s

CPU 0 runs /home/yuc621/Champsim/dpc3_traces/spec_x264_001.champsimtrace.xz
CPU 0 Bimodal branch predictor
CPU 0 EPI prefetcher
CPU 0 L1D next line prefetcher
Heartbeat CPU 0 instructions: 10000002 cycles: 3059727 heartbeat IPC: 3.26827 cumulative IPC: 3.26827 (Simulation time: 0 hr 0 min 18 sec) 
Heartbeat CPU 0 instructions: 20000002 cycles: 6109942 heartbeat IPC: 3.27846 cumulative IPC: 3.27335 (Simulation time: 0 hr 0 min 36 sec) 
Heartbeat CPU 0 instructions: 30000002 cycles: 9145741 heartbeat IPC: 3.29403 cumulative IPC: 3.28022 (Simulation time: 0 hr 0 min 54 sec) 
Heartbeat CPU 0 instructions: 40000000 cycles: 12190119 heartbeat IPC: 3.28474 cumulative IPC: 3.28135 (Simulation time: 0 hr 1 min 12 sec) 
Heartbeat CPU 0 instructions: 50000000 cycles: 15232078 heartbeat IPC: 3.28736 cumulative IPC: 3.28255 (Simulation time: 0 hr 1 min 30 sec) 

Warmup complete CPU 0 instructions: 50000004 cycles: 15232079 (Simulation time: 0 hr 1 min 30 sec) 

Heartbeat CPU 0 instructions: 60000002 cycles: 21336326 heartbeat IPC: 1.6382 cumulative IPC: 1.6382 (Simulation time: 0 hr 1 min 44 sec) 
Heartbeat CPU 0 instructions: 70000002 cycles: 27420676 heartbeat IPC: 1.64356 cumulative IPC: 1.64088 (Simulation time: 0 hr 1 min 57 sec) 
Heartbeat CPU 0 instructions: 80000003 cycles: 33650338 heartbeat IPC: 1.60522 cumulative IPC: 1.62882 (Simulation time: 0 hr 2 min 10 sec) 
Heartbeat CPU 0 instructions: 90000002 cycles: 39863469 heartbeat IPC: 1.60949 cumulative IPC: 1.62394 (Simulation time: 0 hr 2 min 23 sec) 
Heartbeat CPU 0 instructions: 100000003 cycles: 45936500 heartbeat IPC: 1.64662 cumulative IPC: 1.62843 (Simulation time: 0 hr 2 min 35 sec) 
Finished CPU 0 instructions: 50000001 cycles: 30704423 cumulative IPC: 1.62843 (Simulation time: 0 hr 2 min 35 sec) 

ChampSim completed all CPUs

Region of Interest Statistics

CPU 0 cumulative IPC: 1.62843 instructions: 50000001 cycles: 30704423
L1D TOTAL     ACCESS:   13035696  HIT:   12870686  MISS:     165010
L1D LOAD      ACCESS:    5129608  HIT:    5074013  MISS:      55595
L1D RFO       ACCESS:    2879854  HIT:    2845019  MISS:      34835
L1D PREFETCH  ACCESS:    5026234  HIT:    4951654  MISS:      74580
L1D WRITEBACK ACCESS:          0  HIT:          0  MISS:          0
L1D PREFETCH  REQUESTED:    5143426  ISSUED:    5080561  USEFUL:      26064  USELESS:      48321
L1D AVERAGE MISS LATENCY: 39.5283 cycles
L1I TOTAL     ACCESS:   21049875  HIT:   20714447  MISS:     335428
L1I LOAD      ACCESS:    8049650  HIT:    8046901  MISS:       2749
L1I RFO       ACCESS:          0  HIT:          0  MISS:          0
L1I PREFETCH  ACCESS:   13000225  HIT:   12667546  MISS:     332679
L1I WRITEBACK ACCESS:          0  HIT:          0  MISS:          0
L1I PREFETCH  REQUESTED:   15377436  ISSUED:   15377436  USEFUL:     273271  USELESS:      59472
L1I AVERAGE MISS LATENCY: 15.1103 cycles
L2C TOTAL     ACCESS:     744293  HIT:     704855  MISS:      39438
L2C LOAD      ACCESS:      56916  HIT:      51641  MISS:       5275
L2C RFO       ACCESS:      34620  HIT:      22514  MISS:      12106
L2C PREFETCH  ACCESS:     609037  HIT:     587082  MISS:      21955
L2C WRITEBACK ACCESS:      43720  HIT:      43618  MISS:        102
L2C PREFETCH  REQUESTED:     651681  ISSUED:     650364  USEFUL:       9034  USELESS:      13230
L2C AVERAGE MISS LATENCY: 104.184 cycles
LLC TOTAL     ACCESS:     119732  HIT:      90390  MISS:      29342
LLC LOAD      ACCESS:       5273  HIT:       3151  MISS:       2122
LLC RFO       ACCESS:      12106  HIT:        507  MISS:      11599
LLC PREFETCH  ACCESS:      88723  HIT:      73182  MISS:      15541
LLC WRITEBACK ACCESS:      13630  HIT:      13550  MISS:         80
LLC PREFETCH  REQUESTED:          0  ISSUED:          0  USEFUL:       1697  USELESS:      14149
LLC AVERAGE MISS LATENCY: 166.562 cycles
Major fault: 0 Minor fault: 1287
CPU 0 L1I EPI prefetcher final stats
CPU 0 L1D next line prefetcher final stats

DRAM Statistics
 CHANNEL 0
 RQ ROW_BUFFER_HIT:       8779  ROW_BUFFER_MISS:      20483
 DBUS_CONGESTED:      12598
 WQ ROW_BUFFER_HIT:       2979  ROW_BUFFER_MISS:       9873  FULL:          0

 AVG_CONGESTED_CYCLE: 6

CPU 0 Branch Prediction Accuracy: 93.6588% MPKI: 3.88304 Average ROB Occupancy at Mispredict: 30.0464

Branch types
NOT_BRANCH: 46937890 93.8758%
BRANCH_DIRECT_JUMP: 170816 0.341632%
BRANCH_INDIRECT: 0 0%
BRANCH_CONDITIONAL: 2532771 5.06554%
BRANCH_DIRECT_CALL: 114227 0.228454%
BRANCH_INDIRECT_CALL: 64863 0.129726%
BRANCH_RETURN: 179089 0.358178%
BRANCH_OTHER: 0 0%

