Initialize SIGNATURE TABLE
ST_SET: 1
ST_WAY: 256
ST_TAG_BIT: 16
ST_TAG_MASK: ffff

Initialize PATTERN TABLE
PT_SET: 512
PT_WAY: 4
SIG_DELTA_BIT: 7
C_SIG_BIT: 4
C_DELTA_BIT: 4

Initialize PREFETCH FILTER
FILTER_SET: 1024

*** ChampSim Multicore Out-of-Order Simulator ***

Warmup Instructions: 50000000
Simulation Instructions: 50000000
Number of CPUs: 1
LLC sets: 2048
LLC ways: 16
Off-chip DRAM Size: 4096 MB Channels: 1 Width: 64-bit Data Rate: 3200 MT/s

CPU 0 runs /home/yuc621/Champsim/dpc3_traces/spec_gcc_001.champsimtrace.xz
CPU 0 Bimodal branch predictor
CPU 0 EPI prefetcher
CPU 0 L1D next line prefetcher
Heartbeat CPU 0 instructions: 10000003 cycles: 3219349 heartbeat IPC: 3.10622 cumulative IPC: 3.10622 (Simulation time: 0 hr 0 min 26 sec) 
Heartbeat CPU 0 instructions: 20000002 cycles: 6464156 heartbeat IPC: 3.08185 cumulative IPC: 3.09399 (Simulation time: 0 hr 0 min 52 sec) 
Heartbeat CPU 0 instructions: 30000000 cycles: 9666419 heartbeat IPC: 3.12279 cumulative IPC: 3.10353 (Simulation time: 0 hr 1 min 18 sec) 
Heartbeat CPU 0 instructions: 40000001 cycles: 12907023 heartbeat IPC: 3.08584 cumulative IPC: 3.09909 (Simulation time: 0 hr 1 min 44 sec) 
Heartbeat CPU 0 instructions: 50000001 cycles: 16147477 heartbeat IPC: 3.08599 cumulative IPC: 3.09646 (Simulation time: 0 hr 2 min 10 sec) 

Warmup complete CPU 0 instructions: 50000001 cycles: 16147477 (Simulation time: 0 hr 2 min 10 sec) 

Heartbeat CPU 0 instructions: 60000000 cycles: 24391674 heartbeat IPC: 1.21297 cumulative IPC: 1.21297 (Simulation time: 0 hr 2 min 32 sec) 
Heartbeat CPU 0 instructions: 70000003 cycles: 32724333 heartbeat IPC: 1.2001 cumulative IPC: 1.2065 (Simulation time: 0 hr 2 min 55 sec) 
Heartbeat CPU 0 instructions: 80000000 cycles: 40874946 heartbeat IPC: 1.2269 cumulative IPC: 1.21323 (Simulation time: 0 hr 3 min 18 sec) 
Heartbeat CPU 0 instructions: 90000001 cycles: 49262280 heartbeat IPC: 1.19227 cumulative IPC: 1.20792 (Simulation time: 0 hr 3 min 42 sec) 
Heartbeat CPU 0 instructions: 100000000 cycles: 57880673 heartbeat IPC: 1.16031 cumulative IPC: 1.19809 (Simulation time: 0 hr 4 min 6 sec) 
Finished CPU 0 instructions: 50000000 cycles: 41733200 cumulative IPC: 1.19809 (Simulation time: 0 hr 4 min 6 sec) 

ChampSim completed all CPUs

Region of Interest Statistics

CPU 0 cumulative IPC: 1.19809 instructions: 50000000 cycles: 41733200
L1D TOTAL     ACCESS:   19858500  HIT:   18753302  MISS:    1105198
L1D LOAD      ACCESS:    7496261  HIT:    7018676  MISS:     477585
L1D RFO       ACCESS:    5128011  HIT:    5048067  MISS:      79944
L1D PREFETCH  ACCESS:    7234228  HIT:    6686559  MISS:     547669
L1D WRITEBACK ACCESS:          0  HIT:          0  MISS:          0
L1D PREFETCH  REQUESTED:    7539931  ISSUED:    7436734  USEFUL:     277455  USELESS:     270226
L1D AVERAGE MISS LATENCY: 25.4914 cycles
L1I TOTAL     ACCESS:   32763380  HIT:   32232530  MISS:     530850
L1I LOAD      ACCESS:    9338726  HIT:    9295022  MISS:      43704
L1I RFO       ACCESS:          0  HIT:          0  MISS:          0
L1I PREFETCH  ACCESS:   23424654  HIT:   22937508  MISS:     487146
L1I WRITEBACK ACCESS:          0  HIT:          0  MISS:          0
L1I PREFETCH  REQUESTED:   28993846  ISSUED:   28993846  USEFUL:     317273  USELESS:     169857
L1I AVERAGE MISS LATENCY: 19.961 cycles
L2C TOTAL     ACCESS:    2759714  HIT:    2509190  MISS:     250524
L2C LOAD      ACCESS:     483508  HIT:     401000  MISS:      82508
L2C RFO       ACCESS:      75143  HIT:      37097  MISS:      38046
L2C PREFETCH  ACCESS:    1947271  HIT:    1817789  MISS:     129482
L2C WRITEBACK ACCESS:     253792  HIT:     253304  MISS:        488
L2C PREFETCH  REQUESTED:    1876751  ISSUED:    1876483  USEFUL:      31121  USELESS:      97754
L2C AVERAGE MISS LATENCY: 62.4116 cycles
LLC TOTAL     ACCESS:     655089  HIT:     583761  MISS:      71328
LLC LOAD      ACCESS:      82302  HIT:      70984  MISS:      11318
LLC RFO       ACCESS:      38044  HIT:      17543  MISS:      20501
LLC PREFETCH  ACCESS:     443263  HIT:     404760  MISS:      38503
LLC WRITEBACK ACCESS:      91480  HIT:      90474  MISS:       1006
LLC PREFETCH  REQUESTED:          0  ISSUED:          0  USEFUL:      13527  USELESS:      23896
LLC AVERAGE MISS LATENCY: 188.071 cycles
Major fault: 0 Minor fault: 6869
CPU 0 L1I EPI prefetcher final stats
CPU 0 L1D next line prefetcher final stats

DRAM Statistics
 CHANNEL 0
 RQ ROW_BUFFER_HIT:      19358  ROW_BUFFER_MISS:      50961
 DBUS_CONGESTED:      36996
 WQ ROW_BUFFER_HIT:       4589  ROW_BUFFER_MISS:      22603  FULL:          0

 AVG_CONGESTED_CYCLE: 6

CPU 0 Branch Prediction Accuracy: 92.4925% MPKI: 17.6569 Average ROB Occupancy at Mispredict: 58.9111

Branch types
NOT_BRANCH: 38240117 76.4802%
BRANCH_DIRECT_JUMP: 653297 1.30659%
BRANCH_INDIRECT: 37098 0.074196%
BRANCH_CONDITIONAL: 8897823 17.7956%
BRANCH_DIRECT_CALL: 992620 1.98524%
BRANCH_INDIRECT_CALL: 93046 0.186092%
BRANCH_RETURN: 1085674 2.17135%
BRANCH_OTHER: 0 0%

