Initialize SIGNATURE TABLE
ST_SET: 1
ST_WAY: 256
ST_TAG_BIT: 16
ST_TAG_MASK: ffff

Initialize PATTERN TABLE
PT_SET: 512
PT_WAY: 4
SIG_DELTA_BIT: 7
C_SIG_BIT: 4
C_DELTA_BIT: 4

Initialize PREFETCH FILTER
FILTER_SET: 1024

*** ChampSim Multicore Out-of-Order Simulator ***

Warmup Instructions: 50000000
Simulation Instructions: 50000000
Number of CPUs: 1
LLC sets: 2048
LLC ways: 16
Off-chip DRAM Size: 4096 MB Channels: 1 Width: 64-bit Data Rate: 3200 MT/s

CPU 0 runs /home/xuf220/ChampSim/dpc3_traces/client_002.champsimtrace.xz
CPU 0 Bimodal branch predictor
CPU 0 EPI prefetcher
CPU 0 L1D next line prefetcher
Heartbeat CPU 0 instructions: 10000000 cycles: 3405036 heartbeat IPC: 2.93683 cumulative IPC: 2.93683 (Simulation time: 0 hr 0 min 24 sec) 
Heartbeat CPU 0 instructions: 20000002 cycles: 6860854 heartbeat IPC: 2.89367 cumulative IPC: 2.91509 (Simulation time: 0 hr 0 min 50 sec) 
Heartbeat CPU 0 instructions: 30000001 cycles: 10293831 heartbeat IPC: 2.91292 cumulative IPC: 2.91437 (Simulation time: 0 hr 1 min 16 sec) 
Heartbeat CPU 0 instructions: 40000002 cycles: 13726745 heartbeat IPC: 2.91298 cumulative IPC: 2.91402 (Simulation time: 0 hr 1 min 42 sec) 
Heartbeat CPU 0 instructions: 50000002 cycles: 17167732 heartbeat IPC: 2.90614 cumulative IPC: 2.91244 (Simulation time: 0 hr 2 min 7 sec) 

Warmup complete CPU 0 instructions: 50000002 cycles: 17167732 (Simulation time: 0 hr 2 min 7 sec) 

Heartbeat CPU 0 instructions: 60000002 cycles: 23863286 heartbeat IPC: 1.49353 cumulative IPC: 1.49353 (Simulation time: 0 hr 2 min 30 sec) 
Heartbeat CPU 0 instructions: 70000001 cycles: 30651016 heartbeat IPC: 1.47325 cumulative IPC: 1.48332 (Simulation time: 0 hr 2 min 52 sec) 
Heartbeat CPU 0 instructions: 80000003 cycles: 37239908 heartbeat IPC: 1.51771 cumulative IPC: 1.49461 (Simulation time: 0 hr 3 min 15 sec) 
Heartbeat CPU 0 instructions: 90000001 cycles: 44388323 heartbeat IPC: 1.39891 cumulative IPC: 1.46948 (Simulation time: 0 hr 3 min 37 sec) 
Heartbeat CPU 0 instructions: 100000003 cycles: 51073880 heartbeat IPC: 1.49576 cumulative IPC: 1.47466 (Simulation time: 0 hr 4 min 0 sec) 
Finished CPU 0 instructions: 50000001 cycles: 33906148 cumulative IPC: 1.47466 (Simulation time: 0 hr 4 min 0 sec) 

ChampSim completed all CPUs

Region of Interest Statistics

CPU 0 cumulative IPC: 1.47466 instructions: 50000001 cycles: 33906148
L1D TOTAL     ACCESS:   20031171  HIT:   19691727  MISS:     339444
L1D LOAD      ACCESS:    6934232  HIT:    6818328  MISS:     115904
L1D RFO       ACCESS:    6436828  HIT:    6347069  MISS:      89759
L1D PREFETCH  ACCESS:    6660111  HIT:    6526330  MISS:     133781
L1D WRITEBACK ACCESS:          0  HIT:          0  MISS:          0
L1D PREFETCH  REQUESTED:    6945501  ISSUED:    6736183  USEFUL:      54934  USELESS:      78989
L1D AVERAGE MISS LATENCY: 48.093 cycles
L1I TOTAL     ACCESS:   37657431  HIT:   36705790  MISS:     951641
L1I LOAD      ACCESS:    9576364  HIT:    9531854  MISS:      44510
L1I RFO       ACCESS:          0  HIT:          0  MISS:          0
L1I PREFETCH  ACCESS:   28081067  HIT:   27173936  MISS:     907131
L1I WRITEBACK ACCESS:          0  HIT:          0  MISS:          0
L1I PREFETCH  REQUESTED:   34769217  ISSUED:   34769217  USEFUL:     625717  USELESS:     281433
L1I AVERAGE MISS LATENCY: 18.3327 cycles
L2C TOTAL     ACCESS:    1838795  HIT:    1593392  MISS:     245403
L2C LOAD      ACCESS:     138812  HIT:      97353  MISS:      41459
L2C RFO       ACCESS:      88813  HIT:      22709  MISS:      66104
L2C PREFETCH  ACCESS:    1485666  HIT:    1348314  MISS:     137352
L2C WRITEBACK ACCESS:     125504  HIT:     125016  MISS:        488
L2C PREFETCH  REQUESTED:    1237365  ISSUED:    1236592  USEFUL:      11534  USELESS:     124640
L2C AVERAGE MISS LATENCY: 62.5671 cycles
LLC TOTAL     ACCESS:     614000  HIT:     549968  MISS:      64032
LLC LOAD      ACCESS:      41455  HIT:      35857  MISS:       5598
LLC RFO       ACCESS:      66103  HIT:      36618  MISS:      29485
LLC PREFETCH  ACCESS:     422020  HIT:     393285  MISS:      28735
LLC WRITEBACK ACCESS:      84422  HIT:      84208  MISS:        214
LLC PREFETCH  REQUESTED:          0  ISSUED:          0  USEFUL:       6102  USELESS:      20831
LLC AVERAGE MISS LATENCY: 173.177 cycles
Major fault: 0 Minor fault: 3095
CPU 0 L1I EPI prefetcher final stats
CPU 0 L1D next line prefetcher final stats

DRAM Statistics
 CHANNEL 0
 RQ ROW_BUFFER_HIT:      22714  ROW_BUFFER_MISS:      41104
 DBUS_CONGESTED:      43052
 WQ ROW_BUFFER_HIT:       9445  ROW_BUFFER_MISS:      27980  FULL:          0

 AVG_CONGESTED_CYCLE: 6

CPU 0 Branch Prediction Accuracy: 94.6086% MPKI: 10.2416 Average ROB Occupancy at Mispredict: 57.4573

Branch types
NOT_BRANCH: 40501603 81.0032%
BRANCH_DIRECT_JUMP: 517397 1.03479%
BRANCH_INDIRECT: 112347 0.224694%
BRANCH_CONDITIONAL: 6698736 13.3975%
BRANCH_DIRECT_CALL: 960974 1.92195%
BRANCH_INDIRECT_CALL: 123707 0.247414%
BRANCH_RETURN: 1084929 2.16986%
BRANCH_OTHER: 0 0%

