Initialize SIGNATURE TABLE
ST_SET: 1
ST_WAY: 256
ST_TAG_BIT: 16
ST_TAG_MASK: ffff

Initialize PATTERN TABLE
PT_SET: 512
PT_WAY: 4
SIG_DELTA_BIT: 7
C_SIG_BIT: 4
C_DELTA_BIT: 4

Initialize PREFETCH FILTER
FILTER_SET: 1024

*** ChampSim Multicore Out-of-Order Simulator ***

Warmup Instructions: 50000000
Simulation Instructions: 50000000
Number of CPUs: 1
LLC sets: 2048
LLC ways: 16
Off-chip DRAM Size: 4096 MB Channels: 1 Width: 64-bit Data Rate: 3200 MT/s

CPU 0 runs /home/xuf220/ChampSim/dpc3_traces/client_007.champsimtrace.xz
CPU 0 Bimodal branch predictor
CPU 0 EPI prefetcher
CPU 0 L1D next line prefetcher
Heartbeat CPU 0 instructions: 10000001 cycles: 3641785 heartbeat IPC: 2.74591 cumulative IPC: 2.74591 (Simulation time: 0 hr 0 min 24 sec) 
Heartbeat CPU 0 instructions: 20000003 cycles: 7032877 heartbeat IPC: 2.9489 cumulative IPC: 2.84379 (Simulation time: 0 hr 0 min 46 sec) 
Heartbeat CPU 0 instructions: 30000000 cycles: 10903917 heartbeat IPC: 2.58328 cumulative IPC: 2.7513 (Simulation time: 0 hr 1 min 11 sec) 
Heartbeat CPU 0 instructions: 40000003 cycles: 15063885 heartbeat IPC: 2.40387 cumulative IPC: 2.65536 (Simulation time: 0 hr 1 min 36 sec) 
Heartbeat CPU 0 instructions: 50000002 cycles: 18468712 heartbeat IPC: 2.93701 cumulative IPC: 2.70728 (Simulation time: 0 hr 1 min 59 sec) 

Warmup complete CPU 0 instructions: 50000002 cycles: 18468712 (Simulation time: 0 hr 1 min 59 sec) 

Heartbeat CPU 0 instructions: 60000001 cycles: 25774780 heartbeat IPC: 1.36873 cumulative IPC: 1.36873 (Simulation time: 0 hr 2 min 23 sec) 
Heartbeat CPU 0 instructions: 70000003 cycles: 34808612 heartbeat IPC: 1.10695 cumulative IPC: 1.224 (Simulation time: 0 hr 2 min 49 sec) 
Heartbeat CPU 0 instructions: 80000002 cycles: 40594571 heartbeat IPC: 1.72832 cumulative IPC: 1.35588 (Simulation time: 0 hr 3 min 5 sec) 
Heartbeat CPU 0 instructions: 90000000 cycles: 48856054 heartbeat IPC: 1.21044 cumulative IPC: 1.31634 (Simulation time: 0 hr 3 min 27 sec) 
Heartbeat CPU 0 instructions: 100000001 cycles: 58867800 heartbeat IPC: 0.998827 cumulative IPC: 1.23765 (Simulation time: 0 hr 3 min 47 sec) 
Finished CPU 0 instructions: 50000000 cycles: 40399089 cumulative IPC: 1.23765 (Simulation time: 0 hr 3 min 47 sec) 

ChampSim completed all CPUs

Region of Interest Statistics

CPU 0 cumulative IPC: 1.23765 instructions: 50000000 cycles: 40399089
L1D TOTAL     ACCESS:   22073087  HIT:   20903042  MISS:    1170045
L1D LOAD      ACCESS:    8770458  HIT:    8234932  MISS:     535526
L1D RFO       ACCESS:    4955250  HIT:    4865326  MISS:      89924
L1D PREFETCH  ACCESS:    8347379  HIT:    7802784  MISS:     544595
L1D WRITEBACK ACCESS:          0  HIT:          0  MISS:          0
L1D PREFETCH  REQUESTED:    8833165  ISSUED:    8585550  USEFUL:     162422  USELESS:     382188
L1D AVERAGE MISS LATENCY: 33.9917 cycles
L1I TOTAL     ACCESS:   27015240  HIT:   26016416  MISS:     998824
L1I LOAD      ACCESS:    8978976  HIT:    8966889  MISS:      12087
L1I RFO       ACCESS:          0  HIT:          0  MISS:          0
L1I PREFETCH  ACCESS:   18036264  HIT:   17049527  MISS:     986737
L1I WRITEBACK ACCESS:          0  HIT:          0  MISS:          0
L1I PREFETCH  REQUESTED:   21325360  ISSUED:   21325360  USEFUL:     832783  USELESS:     153958
L1I AVERAGE MISS LATENCY: 16.775 cycles
L2C TOTAL     ACCESS:    3117287  HIT:    2911456  MISS:     205831
L2C LOAD      ACCESS:     514899  HIT:     446495  MISS:      68404
L2C RFO       ACCESS:      87846  HIT:      47948  MISS:      39898
L2C PREFETCH  ACCESS:    2186685  HIT:    2089268  MISS:      97417
L2C WRITEBACK ACCESS:     327857  HIT:     327745  MISS:        112
L2C PREFETCH  REQUESTED:    2502436  ISSUED:    2498257  USEFUL:       9060  USELESS:      88012
L2C AVERAGE MISS LATENCY: 123.775 cycles
LLC TOTAL     ACCESS:     965368  HIT:     797682  MISS:     167686
LLC LOAD      ACCESS:      68319  HIT:      33867  MISS:      34452
LLC RFO       ACCESS:      39898  HIT:       7672  MISS:      32226
LLC PREFETCH  ACCESS:     782827  HIT:     682115  MISS:     100712
LLC WRITEBACK ACCESS:      74324  HIT:      74028  MISS:        296
LLC PREFETCH  REQUESTED:          0  ISSUED:          0  USEFUL:      19171  USELESS:      81421
LLC AVERAGE MISS LATENCY: 182.12 cycles
Major fault: 0 Minor fault: 4406
CPU 0 L1I EPI prefetcher final stats
CPU 0 L1D next line prefetcher final stats

DRAM Statistics
 CHANNEL 0
 RQ ROW_BUFFER_HIT:      34011  ROW_BUFFER_MISS:     133375
 DBUS_CONGESTED:      90915
 WQ ROW_BUFFER_HIT:      12804  ROW_BUFFER_MISS:      45664  FULL:          0

 AVG_CONGESTED_CYCLE: 5

CPU 0 Branch Prediction Accuracy: 94.8618% MPKI: 8.3988 Average ROB Occupancy at Mispredict: 71.4417

Branch types
NOT_BRANCH: 41826773 83.6535%
BRANCH_DIRECT_JUMP: 735330 1.47066%
BRANCH_INDIRECT: 269194 0.538388%
BRANCH_CONDITIONAL: 5957947 11.9159%
BRANCH_DIRECT_CALL: 368758 0.737516%
BRANCH_INDIRECT_CALL: 226975 0.45395%
BRANCH_RETURN: 614696 1.22939%
BRANCH_OTHER: 0 0%

