Initialize SIGNATURE TABLE
ST_SET: 1
ST_WAY: 256
ST_TAG_BIT: 16
ST_TAG_MASK: ffff

Initialize PATTERN TABLE
PT_SET: 512
PT_WAY: 4
SIG_DELTA_BIT: 7
C_SIG_BIT: 4
C_DELTA_BIT: 4

Initialize PREFETCH FILTER
FILTER_SET: 1024

*** ChampSim Multicore Out-of-Order Simulator ***

Warmup Instructions: 50000000
Simulation Instructions: 50000000
Number of CPUs: 1
LLC sets: 2048
LLC ways: 16
Off-chip DRAM Size: 4096 MB Channels: 1 Width: 64-bit Data Rate: 3200 MT/s

CPU 0 runs /home/xuf220/ChampSim/dpc3_traces/client_004.champsimtrace.xz
CPU 0 Bimodal branch predictor
CPU 0 EPI prefetcher
CPU 0 L1D next line prefetcher
Heartbeat CPU 0 instructions: 10000000 cycles: 3593129 heartbeat IPC: 2.78309 cumulative IPC: 2.78309 (Simulation time: 0 hr 0 min 25 sec) 
Heartbeat CPU 0 instructions: 20000003 cycles: 7057586 heartbeat IPC: 2.88646 cumulative IPC: 2.83383 (Simulation time: 0 hr 0 min 49 sec) 
Heartbeat CPU 0 instructions: 30000000 cycles: 10648490 heartbeat IPC: 2.78481 cumulative IPC: 2.8173 (Simulation time: 0 hr 1 min 13 sec) 
Heartbeat CPU 0 instructions: 40000003 cycles: 14329289 heartbeat IPC: 2.7168 cumulative IPC: 2.79149 (Simulation time: 0 hr 1 min 38 sec) 
Heartbeat CPU 0 instructions: 50000001 cycles: 17847821 heartbeat IPC: 2.84209 cumulative IPC: 2.80146 (Simulation time: 0 hr 2 min 3 sec) 

Warmup complete CPU 0 instructions: 50000001 cycles: 17847821 (Simulation time: 0 hr 2 min 3 sec) 

Heartbeat CPU 0 instructions: 60000002 cycles: 26074206 heartbeat IPC: 1.2156 cumulative IPC: 1.2156 (Simulation time: 0 hr 2 min 23 sec) 
Heartbeat CPU 0 instructions: 70000001 cycles: 34377939 heartbeat IPC: 1.20428 cumulative IPC: 1.20991 (Simulation time: 0 hr 2 min 46 sec) 
Heartbeat CPU 0 instructions: 80000000 cycles: 43591243 heartbeat IPC: 1.08539 cumulative IPC: 1.16535 (Simulation time: 0 hr 3 min 7 sec) 
Heartbeat CPU 0 instructions: 90000000 cycles: 52273396 heartbeat IPC: 1.15179 cumulative IPC: 1.16193 (Simulation time: 0 hr 3 min 29 sec) 
Heartbeat CPU 0 instructions: 100000001 cycles: 60646213 heartbeat IPC: 1.19434 cumulative IPC: 1.16827 (Simulation time: 0 hr 3 min 51 sec) 
Finished CPU 0 instructions: 50000000 cycles: 42798392 cumulative IPC: 1.16827 (Simulation time: 0 hr 3 min 51 sec) 

ChampSim completed all CPUs

Region of Interest Statistics

CPU 0 cumulative IPC: 1.16827 instructions: 50000000 cycles: 42798392
L1D TOTAL     ACCESS:   22457938  HIT:   21568910  MISS:     889028
L1D LOAD      ACCESS:    8960995  HIT:    8565891  MISS:     395104
L1D RFO       ACCESS:    4828187  HIT:    4706813  MISS:     121374
L1D PREFETCH  ACCESS:    8668756  HIT:    8296206  MISS:     372550
L1D WRITEBACK ACCESS:          0  HIT:          0  MISS:          0
L1D PREFETCH  REQUESTED:    9001773  ISSUED:    8841989  USEFUL:     133950  USELESS:     238608
L1D AVERAGE MISS LATENCY: 29.2821 cycles
L1I TOTAL     ACCESS:   29687919  HIT:   28829496  MISS:     858423
L1I LOAD      ACCESS:    9389671  HIT:    9290487  MISS:      99184
L1I RFO       ACCESS:          0  HIT:          0  MISS:          0
L1I PREFETCH  ACCESS:   20298248  HIT:   19539009  MISS:     759239
L1I WRITEBACK ACCESS:          0  HIT:          0  MISS:          0
L1I PREFETCH  REQUESTED:   24458316  ISSUED:   24458316  USEFUL:     505456  USELESS:     253791
L1I AVERAGE MISS LATENCY: 23.1854 cycles
L2C TOTAL     ACCESS:    2590675  HIT:    2306205  MISS:     284470
L2C LOAD      ACCESS:     455122  HIT:     370337  MISS:      84785
L2C RFO       ACCESS:     117687  HIT:      45917  MISS:      71770
L2C PREFETCH  ACCESS:    1795856  HIT:    1668593  MISS:     127263
L2C WRITEBACK ACCESS:     222010  HIT:     221358  MISS:        652
L2C PREFETCH  REQUESTED:    1720719  ISSUED:    1720283  USEFUL:      21385  USELESS:     104891
L2C AVERAGE MISS LATENCY: 75.4635 cycles
LLC TOTAL     ACCESS:     714439  HIT:     586369  MISS:     128070
LLC LOAD      ACCESS:      84750  HIT:      54118  MISS:      30632
LLC RFO       ACCESS:      71768  HIT:      41523  MISS:      30245
LLC PREFETCH  ACCESS:     457995  HIT:     391042  MISS:      66953
LLC WRITEBACK ACCESS:      99926  HIT:      99686  MISS:        240
LLC PREFETCH  REQUESTED:          0  ISSUED:          0  USEFUL:      28352  USELESS:      40497
LLC AVERAGE MISS LATENCY: 166.335 cycles
Major fault: 0 Minor fault: 3977
CPU 0 L1I EPI prefetcher final stats
CPU 0 L1D next line prefetcher final stats

DRAM Statistics
 CHANNEL 0
 RQ ROW_BUFFER_HIT:      30172  ROW_BUFFER_MISS:      97638
 DBUS_CONGESTED:      55179
 WQ ROW_BUFFER_HIT:      10315  ROW_BUFFER_MISS:      32810  FULL:          0

 AVG_CONGESTED_CYCLE: 6

CPU 0 Branch Prediction Accuracy: 91.9561% MPKI: 15.8925 Average ROB Occupancy at Mispredict: 55.7647

Branch types
NOT_BRANCH: 40121075 80.2421%
BRANCH_DIRECT_JUMP: 644555 1.28911%
BRANCH_INDIRECT: 201946 0.403892%
BRANCH_CONDITIONAL: 7003556 14.0071%
BRANCH_DIRECT_CALL: 564821 1.12964%
BRANCH_INDIRECT_CALL: 445012 0.890024%
BRANCH_RETURN: 1018716 2.03743%
BRANCH_OTHER: 0 0%

