Initialize SIGNATURE TABLE
ST_SET: 1
ST_WAY: 256
ST_TAG_BIT: 16
ST_TAG_MASK: ffff

Initialize PATTERN TABLE
PT_SET: 512
PT_WAY: 4
SIG_DELTA_BIT: 7
C_SIG_BIT: 4
C_DELTA_BIT: 4

Initialize PREFETCH FILTER
FILTER_SET: 1024

*** ChampSim Multicore Out-of-Order Simulator ***

Warmup Instructions: 50000000
Simulation Instructions: 50000000
Number of CPUs: 1
LLC sets: 2048
LLC ways: 16
Off-chip DRAM Size: 4096 MB Channels: 1 Width: 64-bit Data Rate: 3200 MT/s

CPU 0 runs /home/xuf220/ChampSim/dpc3_traces/client_008.champsimtrace.xz
CPU 0 Bimodal branch predictor
CPU 0 EPI prefetcher
CPU 0 L1D next line prefetcher
Heartbeat CPU 0 instructions: 10000001 cycles: 3751494 heartbeat IPC: 2.66561 cumulative IPC: 2.66561 (Simulation time: 0 hr 0 min 26 sec) 
Heartbeat CPU 0 instructions: 20000001 cycles: 7524249 heartbeat IPC: 2.65058 cumulative IPC: 2.65807 (Simulation time: 0 hr 0 min 53 sec) 
Heartbeat CPU 0 instructions: 30000000 cycles: 11248843 heartbeat IPC: 2.68486 cumulative IPC: 2.66694 (Simulation time: 0 hr 1 min 20 sec) 
Heartbeat CPU 0 instructions: 40000002 cycles: 15040352 heartbeat IPC: 2.63747 cumulative IPC: 2.65951 (Simulation time: 0 hr 1 min 48 sec) 
Heartbeat CPU 0 instructions: 50000003 cycles: 18829313 heartbeat IPC: 2.63925 cumulative IPC: 2.65543 (Simulation time: 0 hr 2 min 16 sec) 

Warmup complete CPU 0 instructions: 50000003 cycles: 18829313 (Simulation time: 0 hr 2 min 16 sec) 

Heartbeat CPU 0 instructions: 60000000 cycles: 27614729 heartbeat IPC: 1.13825 cumulative IPC: 1.13825 (Simulation time: 0 hr 2 min 41 sec) 
Heartbeat CPU 0 instructions: 70000000 cycles: 36041593 heartbeat IPC: 1.18668 cumulative IPC: 1.16196 (Simulation time: 0 hr 3 min 8 sec) 
Heartbeat CPU 0 instructions: 80000001 cycles: 45493539 heartbeat IPC: 1.05798 cumulative IPC: 1.1251 (Simulation time: 0 hr 3 min 31 sec) 
Heartbeat CPU 0 instructions: 90000001 cycles: 53419681 heartbeat IPC: 1.26165 cumulative IPC: 1.15639 (Simulation time: 0 hr 3 min 52 sec) 
Heartbeat CPU 0 instructions: 100000001 cycles: 62344372 heartbeat IPC: 1.12049 cumulative IPC: 1.14903 (Simulation time: 0 hr 4 min 13 sec) 
Finished CPU 0 instructions: 50000002 cycles: 43515060 cumulative IPC: 1.14903 (Simulation time: 0 hr 4 min 13 sec) 

ChampSim completed all CPUs

Region of Interest Statistics

CPU 0 cumulative IPC: 1.14903 instructions: 50000002 cycles: 43515060
L1D TOTAL     ACCESS:   21357206  HIT:   19727043  MISS:    1630163
L1D LOAD      ACCESS:    8485234  HIT:    7690243  MISS:     794991
L1D RFO       ACCESS:    4849112  HIT:    4740177  MISS:     108935
L1D PREFETCH  ACCESS:    8022860  HIT:    7296623  MISS:     726237
L1D WRITEBACK ACCESS:          0  HIT:          0  MISS:          0
L1D PREFETCH  REQUESTED:    8565543  ISSUED:    8395918  USEFUL:     205301  USELESS:     520941
L1D AVERAGE MISS LATENCY: 32.1378 cycles
L1I TOTAL     ACCESS:   30648106  HIT:   29701118  MISS:     946988
L1I LOAD      ACCESS:    9620488  HIT:    9597550  MISS:      22938
L1I RFO       ACCESS:          0  HIT:          0  MISS:          0
L1I PREFETCH  ACCESS:   21027618  HIT:   20103568  MISS:     924050
L1I WRITEBACK ACCESS:          0  HIT:          0  MISS:          0
L1I PREFETCH  REQUESTED:   24758010  ISSUED:   24758010  USEFUL:     725324  USELESS:     198798
L1I AVERAGE MISS LATENCY: 18.2561 cycles
L2C TOTAL     ACCESS:    3629117  HIT:    3178337  MISS:     450780
L2C LOAD      ACCESS:     761253  HIT:     598993  MISS:     162260
L2C RFO       ACCESS:     103822  HIT:      18131  MISS:      85691
L2C PREFETCH  ACCESS:    2582059  HIT:    2379677  MISS:     202382
L2C WRITEBACK ACCESS:     181983  HIT:     181536  MISS:        447
L2C PREFETCH  REQUESTED:    3073121  ISSUED:    3066575  USEFUL:      17720  USELESS:     186660
L2C AVERAGE MISS LATENCY: 74.8666 cycles
LLC TOTAL     ACCESS:    1360914  HIT:    1180714  MISS:     180200
LLC LOAD      ACCESS:     162152  HIT:     140472  MISS:      21680
LLC RFO       ACCESS:      85684  HIT:      16855  MISS:      68829
LLC PREFETCH  ACCESS:     977352  HIT:     888027  MISS:      89325
LLC WRITEBACK ACCESS:     135726  HIT:     135360  MISS:        366
LLC PREFETCH  REQUESTED:          0  ISSUED:          0  USEFUL:      25353  USELESS:      71713
LLC AVERAGE MISS LATENCY: 163.764 cycles
Major fault: 0 Minor fault: 5304
CPU 0 L1I EPI prefetcher final stats
CPU 0 L1D next line prefetcher final stats

DRAM Statistics
 CHANNEL 0
 RQ ROW_BUFFER_HIT:      52697  ROW_BUFFER_MISS:     127110
 DBUS_CONGESTED:      96548
 WQ ROW_BUFFER_HIT:      23004  ROW_BUFFER_MISS:      66847  FULL:          0

 AVG_CONGESTED_CYCLE: 6

CPU 0 Branch Prediction Accuracy: 95.4044% MPKI: 10.7264 Average ROB Occupancy at Mispredict: 76.9517

Branch types
NOT_BRANCH: 38329412 76.6588%
BRANCH_DIRECT_JUMP: 510116 1.02023%
BRANCH_INDIRECT: 225730 0.45146%
BRANCH_CONDITIONAL: 8366692 16.7334%
BRANCH_DIRECT_CALL: 600745 1.20149%
BRANCH_INDIRECT_CALL: 682990 1.36598%
BRANCH_RETURN: 1283970 2.56794%
BRANCH_OTHER: 0 0%

