Initialize SIGNATURE TABLE
ST_SET: 1
ST_WAY: 256
ST_TAG_BIT: 16
ST_TAG_MASK: ffff

Initialize PATTERN TABLE
PT_SET: 512
PT_WAY: 4
SIG_DELTA_BIT: 7
C_SIG_BIT: 4
C_DELTA_BIT: 4

Initialize PREFETCH FILTER
FILTER_SET: 1024

*** ChampSim Multicore Out-of-Order Simulator ***

Warmup Instructions: 50000000
Simulation Instructions: 50000000
Number of CPUs: 1
LLC sets: 2048
LLC ways: 16
Off-chip DRAM Size: 4096 MB Channels: 1 Width: 64-bit Data Rate: 3200 MT/s

CPU 0 runs /home/xuf220/ChampSim/dpc3_traces/client_005.champsimtrace.xz
CPU 0 Bimodal branch predictor
CPU 0 EPI prefetcher
CPU 0 L1D next line prefetcher
Heartbeat CPU 0 instructions: 10000001 cycles: 3292142 heartbeat IPC: 3.03754 cumulative IPC: 3.03754 (Simulation time: 0 hr 0 min 24 sec) 
Heartbeat CPU 0 instructions: 20000002 cycles: 6699343 heartbeat IPC: 2.93496 cumulative IPC: 2.98537 (Simulation time: 0 hr 0 min 50 sec) 
Heartbeat CPU 0 instructions: 30000001 cycles: 10392718 heartbeat IPC: 2.70755 cumulative IPC: 2.88664 (Simulation time: 0 hr 1 min 19 sec) 
Heartbeat CPU 0 instructions: 40000000 cycles: 14070726 heartbeat IPC: 2.71886 cumulative IPC: 2.84278 (Simulation time: 0 hr 1 min 48 sec) 
Heartbeat CPU 0 instructions: 50000001 cycles: 17344572 heartbeat IPC: 3.05451 cumulative IPC: 2.88275 (Simulation time: 0 hr 2 min 14 sec) 

Warmup complete CPU 0 instructions: 50000001 cycles: 17344572 (Simulation time: 0 hr 2 min 14 sec) 

Heartbeat CPU 0 instructions: 60000001 cycles: 25490506 heartbeat IPC: 1.22761 cumulative IPC: 1.22761 (Simulation time: 0 hr 2 min 36 sec) 
Heartbeat CPU 0 instructions: 70000003 cycles: 33222750 heartbeat IPC: 1.29329 cumulative IPC: 1.25959 (Simulation time: 0 hr 3 min 0 sec) 
Heartbeat CPU 0 instructions: 80000001 cycles: 40341503 heartbeat IPC: 1.40474 cumulative IPC: 1.30452 (Simulation time: 0 hr 3 min 26 sec) 
Heartbeat CPU 0 instructions: 90000002 cycles: 50127104 heartbeat IPC: 1.02191 cumulative IPC: 1.22016 (Simulation time: 0 hr 3 min 54 sec) 
Heartbeat CPU 0 instructions: 100000002 cycles: 58276205 heartbeat IPC: 1.22713 cumulative IPC: 1.22155 (Simulation time: 0 hr 4 min 17 sec) 
Finished CPU 0 instructions: 50000001 cycles: 40931633 cumulative IPC: 1.22155 (Simulation time: 0 hr 4 min 17 sec) 

ChampSim completed all CPUs

Region of Interest Statistics

CPU 0 cumulative IPC: 1.22155 instructions: 50000001 cycles: 40931633
L1D TOTAL     ACCESS:   20119997  HIT:   19583994  MISS:     536003
L1D LOAD      ACCESS:    6887745  HIT:    6716457  MISS:     171288
L1D RFO       ACCESS:    6806936  HIT:    6622590  MISS:     184346
L1D PREFETCH  ACCESS:    6425316  HIT:    6244947  MISS:     180369
L1D WRITEBACK ACCESS:          0  HIT:          0  MISS:          0
L1D PREFETCH  REQUESTED:    6911861  ISSUED:    6534482  USEFUL:      60019  USELESS:     120238
L1D AVERAGE MISS LATENCY: 92.0282 cycles
L1I TOTAL     ACCESS:   36297906  HIT:   34948174  MISS:    1349732
L1I LOAD      ACCESS:    9307799  HIT:    9212532  MISS:      95267
L1I RFO       ACCESS:          0  HIT:          0  MISS:          0
L1I PREFETCH  ACCESS:   26990107  HIT:   25735642  MISS:    1254465
L1I WRITEBACK ACCESS:          0  HIT:          0  MISS:          0
L1I PREFETCH  REQUESTED:   32475852  ISSUED:   32475852  USEFUL:     757913  USELESS:     496522
L1I AVERAGE MISS LATENCY: 19.2784 cycles
L2C TOTAL     ACCESS:    2779113  HIT:    2386259  MISS:     392854
L2C LOAD      ACCESS:     230098  HIT:     141760  MISS:      88338
L2C RFO       ACCESS:     180777  HIT:      31936  MISS:     148841
L2C PREFETCH  ACCESS:    2115198  HIT:    1960979  MISS:     154219
L2C WRITEBACK ACCESS:     253040  HIT:     251584  MISS:       1456
L2C PREFETCH  REQUESTED:    1957942  ISSUED:    1957118  USEFUL:      14428  USELESS:     137814
L2C AVERAGE MISS LATENCY: 124.435 cycles
LLC TOTAL     ACCESS:    1000917  HIT:     700209  MISS:     300708
LLC LOAD      ACCESS:      88316  HIT:      45556  MISS:      42760
LLC RFO       ACCESS:     148838  HIT:      18410  MISS:     130428
LLC PREFETCH  ACCESS:     564927  HIT:     438337  MISS:     126590
LLC WRITEBACK ACCESS:     198836  HIT:     197906  MISS:        930
LLC PREFETCH  REQUESTED:          0  ISSUED:          0  USEFUL:      30518  USELESS:      92344
LLC AVERAGE MISS LATENCY: 168.58 cycles
Major fault: 0 Minor fault: 6088
CPU 0 L1I EPI prefetcher final stats
CPU 0 L1D next line prefetcher final stats

DRAM Statistics
 CHANNEL 0
 RQ ROW_BUFFER_HIT:      97331  ROW_BUFFER_MISS:     202442
 DBUS_CONGESTED:     240109
 WQ ROW_BUFFER_HIT:      50661  ROW_BUFFER_MISS:     132288  FULL:          0

 AVG_CONGESTED_CYCLE: 6

CPU 0 Branch Prediction Accuracy: 94.8377% MPKI: 9.44012 Average ROB Occupancy at Mispredict: 67.8459

Branch types
NOT_BRANCH: 40856324 81.7126%
BRANCH_DIRECT_JUMP: 484667 0.969334%
BRANCH_INDIRECT: 85086 0.170172%
BRANCH_CONDITIONAL: 6230887 12.4618%
BRANCH_DIRECT_CALL: 1028917 2.05783%
BRANCH_INDIRECT_CALL: 141825 0.28365%
BRANCH_RETURN: 1171985 2.34397%
BRANCH_OTHER: 0 0%

