Initialize SIGNATURE TABLE
ST_SET: 1
ST_WAY: 256
ST_TAG_BIT: 16
ST_TAG_MASK: ffff

Initialize PATTERN TABLE
PT_SET: 512
PT_WAY: 4
SIG_DELTA_BIT: 7
C_SIG_BIT: 4
C_DELTA_BIT: 4

Initialize PREFETCH FILTER
FILTER_SET: 1024

*** ChampSim Multicore Out-of-Order Simulator ***

Warmup Instructions: 50000000
Simulation Instructions: 50000000
Number of CPUs: 1
LLC sets: 2048
LLC ways: 16
Off-chip DRAM Size: 4096 MB Channels: 1 Width: 64-bit Data Rate: 3200 MT/s

CPU 0 runs /home/xuf220/ChampSim/dpc3_traces/server_011.champsimtrace.xz
CPU 0 Bimodal branch predictor
CPU 0 EPI prefetcher
CPU 0 L1D next line prefetcher
Heartbeat CPU 0 instructions: 10000002 cycles: 3206635 heartbeat IPC: 3.11853 cumulative IPC: 3.11853 (Simulation time: 0 hr 0 min 25 sec) 
Heartbeat CPU 0 instructions: 20000001 cycles: 6418488 heartbeat IPC: 3.11347 cumulative IPC: 3.116 (Simulation time: 0 hr 0 min 49 sec) 
Heartbeat CPU 0 instructions: 30000001 cycles: 9673927 heartbeat IPC: 3.07178 cumulative IPC: 3.10112 (Simulation time: 0 hr 1 min 14 sec) 
Heartbeat CPU 0 instructions: 40000003 cycles: 12876657 heartbeat IPC: 3.12234 cumulative IPC: 3.1064 (Simulation time: 0 hr 1 min 39 sec) 
Heartbeat CPU 0 instructions: 50000000 cycles: 16086241 heartbeat IPC: 3.11567 cumulative IPC: 3.10825 (Simulation time: 0 hr 2 min 4 sec) 

Warmup complete CPU 0 instructions: 50000004 cycles: 16086242 (Simulation time: 0 hr 2 min 4 sec) 

Heartbeat CPU 0 instructions: 60000002 cycles: 24361946 heartbeat IPC: 1.20836 cumulative IPC: 1.20836 (Simulation time: 0 hr 2 min 26 sec) 
Heartbeat CPU 0 instructions: 70000001 cycles: 33056689 heartbeat IPC: 1.15012 cumulative IPC: 1.17852 (Simulation time: 0 hr 2 min 49 sec) 
Heartbeat CPU 0 instructions: 80000003 cycles: 42599254 heartbeat IPC: 1.04794 cumulative IPC: 1.13152 (Simulation time: 0 hr 3 min 9 sec) 
Heartbeat CPU 0 instructions: 90000001 cycles: 50899960 heartbeat IPC: 1.20472 cumulative IPC: 1.14897 (Simulation time: 0 hr 3 min 31 sec) 
Heartbeat CPU 0 instructions: 100000000 cycles: 59096749 heartbeat IPC: 1.21999 cumulative IPC: 1.16251 (Simulation time: 0 hr 3 min 53 sec) 
Finished CPU 0 instructions: 50000003 cycles: 43010519 cumulative IPC: 1.16251 (Simulation time: 0 hr 3 min 53 sec) 

ChampSim completed all CPUs

Region of Interest Statistics

CPU 0 cumulative IPC: 1.16251 instructions: 50000003 cycles: 43010519
L1D TOTAL     ACCESS:   18855207  HIT:   17822817  MISS:    1032390
L1D LOAD      ACCESS:    7117658  HIT:    6640251  MISS:     477407
L1D RFO       ACCESS:    4853418  HIT:    4771273  MISS:      82145
L1D PREFETCH  ACCESS:    6884131  HIT:    6411293  MISS:     472838
L1D WRITEBACK ACCESS:          0  HIT:          0  MISS:          0
L1D PREFETCH  REQUESTED:    7159678  ISSUED:    7063890  USEFUL:     142022  USELESS:     330812
L1D AVERAGE MISS LATENCY: 39.912 cycles
L1I TOTAL     ACCESS:   30762932  HIT:   29094139  MISS:    1668793
L1I LOAD      ACCESS:    8859666  HIT:    8785465  MISS:      74201
L1I RFO       ACCESS:          0  HIT:          0  MISS:          0
L1I PREFETCH  ACCESS:   21903266  HIT:   20308674  MISS:    1594592
L1I WRITEBACK ACCESS:          0  HIT:          0  MISS:          0
L1I PREFETCH  REQUESTED:   26684461  ISSUED:   26684461  USEFUL:    1193627  USELESS:     400917
L1I AVERAGE MISS LATENCY: 32.6445 cycles
L2C TOTAL     ACCESS:    3522146  HIT:    2412244  MISS:    1109902
L2C LOAD      ACCESS:     506556  HIT:     270051  MISS:     236505
L2C RFO       ACCESS:      80325  HIT:      34504  MISS:      45821
L2C PREFETCH  ACCESS:    2667037  HIT:    1840692  MISS:     826345
L2C WRITEBACK ACCESS:     268228  HIT:     266997  MISS:       1231
L2C PREFETCH  REQUESTED:    3353019  ISSUED:    3348074  USEFUL:      25243  USELESS:     800783
L2C AVERAGE MISS LATENCY: 49.9652 cycles
LLC TOTAL     ACCESS:    2150427  HIT:    1970841  MISS:     179586
LLC LOAD      ACCESS:     235837  HIT:     203751  MISS:      32086
LLC RFO       ACCESS:      45817  HIT:      32603  MISS:      13214
LLC PREFETCH  ACCESS:    1718928  HIT:    1585032  MISS:     133896
LLC WRITEBACK ACCESS:     149845  HIT:     149455  MISS:        390
LLC PREFETCH  REQUESTED:          0  ISSUED:          0  USEFUL:      19787  USELESS:     112819
LLC AVERAGE MISS LATENCY: 170.883 cycles
Major fault: 0 Minor fault: 6979
CPU 0 L1I EPI prefetcher final stats
CPU 0 L1D next line prefetcher final stats

DRAM Statistics
 CHANNEL 0
 RQ ROW_BUFFER_HIT:      32690  ROW_BUFFER_MISS:     146496
 DBUS_CONGESTED:      77989
 WQ ROW_BUFFER_HIT:      12473  ROW_BUFFER_MISS:      48938  FULL:          0

 AVG_CONGESTED_CYCLE: 5

CPU 0 Branch Prediction Accuracy: 92.4417% MPKI: 14.1981 Average ROB Occupancy at Mispredict: 53.3888

Branch types
NOT_BRANCH: 40607196 81.2144%
BRANCH_DIRECT_JUMP: 451601 0.903202%
BRANCH_INDIRECT: 151580 0.30316%
BRANCH_CONDITIONAL: 7041635 14.0833%
BRANCH_DIRECT_CALL: 647826 1.29565%
BRANCH_INDIRECT_CALL: 211373 0.422746%
BRANCH_RETURN: 888438 1.77688%
BRANCH_OTHER: 0 0%

