Initialize SIGNATURE TABLE
ST_SET: 1
ST_WAY: 256
ST_TAG_BIT: 16
ST_TAG_MASK: ffff

Initialize PATTERN TABLE
PT_SET: 512
PT_WAY: 4
SIG_DELTA_BIT: 7
C_SIG_BIT: 4
C_DELTA_BIT: 4

Initialize PREFETCH FILTER
FILTER_SET: 1024

*** ChampSim Multicore Out-of-Order Simulator ***

Warmup Instructions: 50000000
Simulation Instructions: 50000000
Number of CPUs: 1
LLC sets: 2048
LLC ways: 16
Off-chip DRAM Size: 4096 MB Channels: 1 Width: 64-bit Data Rate: 3200 MT/s

CPU 0 runs /home/xuf220/ChampSim/dpc3_traces/server_027.champsimtrace.xz
CPU 0 Bimodal branch predictor
CPU 0 EPI prefetcher
CPU 0 L1D next line prefetcher
Heartbeat CPU 0 instructions: 10000001 cycles: 3525086 heartbeat IPC: 2.83681 cumulative IPC: 2.83681 (Simulation time: 0 hr 0 min 26 sec) 
Heartbeat CPU 0 instructions: 20000001 cycles: 7055493 heartbeat IPC: 2.83253 cumulative IPC: 2.83467 (Simulation time: 0 hr 0 min 53 sec) 
Heartbeat CPU 0 instructions: 30000002 cycles: 10580946 heartbeat IPC: 2.83652 cumulative IPC: 2.83529 (Simulation time: 0 hr 1 min 20 sec) 
Heartbeat CPU 0 instructions: 40000000 cycles: 14112117 heartbeat IPC: 2.83192 cumulative IPC: 2.83444 (Simulation time: 0 hr 1 min 47 sec) 
Heartbeat CPU 0 instructions: 50000001 cycles: 17636610 heartbeat IPC: 2.83729 cumulative IPC: 2.83501 (Simulation time: 0 hr 2 min 14 sec) 

Warmup complete CPU 0 instructions: 50000001 cycles: 17636610 (Simulation time: 0 hr 2 min 14 sec) 

Heartbeat CPU 0 instructions: 60000002 cycles: 25586378 heartbeat IPC: 1.2579 cumulative IPC: 1.2579 (Simulation time: 0 hr 2 min 38 sec) 
Heartbeat CPU 0 instructions: 70000003 cycles: 33462530 heartbeat IPC: 1.26966 cumulative IPC: 1.26375 (Simulation time: 0 hr 3 min 1 sec) 
Heartbeat CPU 0 instructions: 80000002 cycles: 41354531 heartbeat IPC: 1.26711 cumulative IPC: 1.26487 (Simulation time: 0 hr 3 min 25 sec) 
Heartbeat CPU 0 instructions: 90000001 cycles: 49319611 heartbeat IPC: 1.25548 cumulative IPC: 1.26251 (Simulation time: 0 hr 3 min 48 sec) 
Heartbeat CPU 0 instructions: 100000002 cycles: 57176657 heartbeat IPC: 1.27274 cumulative IPC: 1.26454 (Simulation time: 0 hr 4 min 12 sec) 
Finished CPU 0 instructions: 50000001 cycles: 39540047 cumulative IPC: 1.26454 (Simulation time: 0 hr 4 min 12 sec) 

ChampSim completed all CPUs

Region of Interest Statistics

CPU 0 cumulative IPC: 1.26454 instructions: 50000001 cycles: 39540047
L1D TOTAL     ACCESS:   21453817  HIT:   19849967  MISS:    1603850
L1D LOAD      ACCESS:    7702350  HIT:    7018163  MISS:     684187
L1D RFO       ACCESS:    6315813  HIT:    6029659  MISS:     286154
L1D PREFETCH  ACCESS:    7435654  HIT:    6802145  MISS:     633509
L1D WRITEBACK ACCESS:          0  HIT:          0  MISS:          0
L1D PREFETCH  REQUESTED:    7753746  ISSUED:    7649311  USEFUL:     157157  USELESS:     476366
L1D AVERAGE MISS LATENCY: 23.1919 cycles
L1I TOTAL     ACCESS:   29254945  HIT:   25874930  MISS:    3380015
L1I LOAD      ACCESS:    9186269  HIT:    9136742  MISS:      49527
L1I RFO       ACCESS:          0  HIT:          0  MISS:          0
L1I PREFETCH  ACCESS:   20068676  HIT:   16738188  MISS:    3330488
L1I WRITEBACK ACCESS:          0  HIT:          0  MISS:          0
L1I PREFETCH  REQUESTED:   24933872  ISSUED:   24933872  USEFUL:    2770831  USELESS:     559699
L1I AVERAGE MISS LATENCY: 19.2873 cycles
L2C TOTAL     ACCESS:    6784329  HIT:    6006446  MISS:     777883
L2C LOAD      ACCESS:     664805  HIT:     545072  MISS:     119733
L2C RFO       ACCESS:     283768  HIT:     195223  MISS:      88545
L2C PREFETCH  ACCESS:    5276340  HIT:    4710945  MISS:     565395
L2C WRITEBACK ACCESS:     559416  HIT:     555206  MISS:       4210
L2C PREFETCH  REQUESTED:    5481976  ISSUED:    5476556  USEFUL:      12893  USELESS:     551696
L2C AVERAGE MISS LATENCY: 38.6804 cycles
LLC TOTAL     ACCESS:    2382770  HIT:    2348231  MISS:      34539
LLC LOAD      ACCESS:     119628  HIT:     116112  MISS:       3516
LLC RFO       ACCESS:      88542  HIT:      74810  MISS:      13732
LLC PREFETCH  ACCESS:    2029058  HIT:    2011953  MISS:      17105
LLC WRITEBACK ACCESS:     145542  HIT:     145356  MISS:        186
LLC PREFETCH  REQUESTED:          0  ISSUED:          0  USEFUL:       1398  USELESS:      15443
LLC AVERAGE MISS LATENCY: 181.548 cycles
Major fault: 0 Minor fault: 2480
CPU 0 L1I EPI prefetcher final stats
CPU 0 L1D next line prefetcher final stats

DRAM Statistics
 CHANNEL 0
 RQ ROW_BUFFER_HIT:      11358  ROW_BUFFER_MISS:      22993
 DBUS_CONGESTED:      23129
 WQ ROW_BUFFER_HIT:       1619  ROW_BUFFER_MISS:      14354  FULL:          0

 AVG_CONGESTED_CYCLE: 6

CPU 0 Branch Prediction Accuracy: 91.5085% MPKI: 15.5267 Average ROB Occupancy at Mispredict: 61.7968

Branch types
NOT_BRANCH: 40857323 81.7146%
BRANCH_DIRECT_JUMP: 526632 1.05326%
BRANCH_INDIRECT: 205902 0.411804%
BRANCH_CONDITIONAL: 6184029 12.3681%
BRANCH_DIRECT_CALL: 938465 1.87693%
BRANCH_INDIRECT_CALL: 174486 0.348972%
BRANCH_RETURN: 1112955 2.22591%
BRANCH_OTHER: 0 0%

