Initialize SIGNATURE TABLE
ST_SET: 1
ST_WAY: 256
ST_TAG_BIT: 16
ST_TAG_MASK: ffff

Initialize PATTERN TABLE
PT_SET: 512
PT_WAY: 4
SIG_DELTA_BIT: 7
C_SIG_BIT: 4
C_DELTA_BIT: 4

Initialize PREFETCH FILTER
FILTER_SET: 1024

*** ChampSim Multicore Out-of-Order Simulator ***

Warmup Instructions: 50000000
Simulation Instructions: 50000000
Number of CPUs: 1
LLC sets: 2048
LLC ways: 16
Off-chip DRAM Size: 4096 MB Channels: 1 Width: 64-bit Data Rate: 3200 MT/s

CPU 0 runs /home/xuf220/ChampSim/dpc3_traces/server_009.champsimtrace.xz
CPU 0 Bimodal branch predictor
CPU 0 EPI prefetcher
CPU 0 L1D next line prefetcher
Heartbeat CPU 0 instructions: 10000003 cycles: 3199946 heartbeat IPC: 3.12505 cumulative IPC: 3.12505 (Simulation time: 0 hr 0 min 24 sec) 
Heartbeat CPU 0 instructions: 20000001 cycles: 6393122 heartbeat IPC: 3.13168 cumulative IPC: 3.12836 (Simulation time: 0 hr 0 min 49 sec) 
Heartbeat CPU 0 instructions: 30000002 cycles: 9600621 heartbeat IPC: 3.11769 cumulative IPC: 3.1248 (Simulation time: 0 hr 1 min 14 sec) 
Heartbeat CPU 0 instructions: 40000003 cycles: 12803995 heartbeat IPC: 3.12171 cumulative IPC: 3.12403 (Simulation time: 0 hr 1 min 38 sec) 
Heartbeat CPU 0 instructions: 50000000 cycles: 16063806 heartbeat IPC: 3.06766 cumulative IPC: 3.11259 (Simulation time: 0 hr 2 min 4 sec) 

Warmup complete CPU 0 instructions: 50000004 cycles: 16063807 (Simulation time: 0 hr 2 min 4 sec) 

Heartbeat CPU 0 instructions: 60000001 cycles: 32365115 heartbeat IPC: 0.613448 cumulative IPC: 0.613448 (Simulation time: 0 hr 2 min 33 sec) 
Heartbeat CPU 0 instructions: 70000003 cycles: 53938208 heartbeat IPC: 0.46354 cumulative IPC: 0.528061 (Simulation time: 0 hr 3 min 9 sec) 
Heartbeat CPU 0 instructions: 80000000 cycles: 61905096 heartbeat IPC: 1.25519 cumulative IPC: 0.654432 (Simulation time: 0 hr 3 min 31 sec) 
Heartbeat CPU 0 instructions: 90000001 cycles: 70051632 heartbeat IPC: 1.22752 cumulative IPC: 0.740908 (Simulation time: 0 hr 3 min 52 sec) 
Heartbeat CPU 0 instructions: 100000001 cycles: 78069185 heartbeat IPC: 1.24726 cumulative IPC: 0.806382 (Simulation time: 0 hr 4 min 14 sec) 
Finished CPU 0 instructions: 50000000 cycles: 62005379 cumulative IPC: 0.806382 (Simulation time: 0 hr 4 min 14 sec) 

ChampSim completed all CPUs

Region of Interest Statistics

CPU 0 cumulative IPC: 0.806382 instructions: 50000000 cycles: 62005379
L1D TOTAL     ACCESS:   22322974  HIT:   17742297  MISS:    4580677
L1D LOAD      ACCESS:    8965784  HIT:    6689381  MISS:    2276403
L1D RFO       ACCESS:    4598954  HIT:    4494173  MISS:     104781
L1D PREFETCH  ACCESS:    8758236  HIT:    6558743  MISS:    2199493
L1D WRITEBACK ACCESS:          0  HIT:          0  MISS:          0
L1D PREFETCH  REQUESTED:    9000704  ISSUED:    8902077  USEFUL:     110152  USELESS:    2089340
L1D AVERAGE MISS LATENCY: 20.1894 cycles
L1I TOTAL     ACCESS:   36441408  HIT:   35034749  MISS:    1406659
L1I LOAD      ACCESS:    9754888  HIT:    9719029  MISS:      35859
L1I RFO       ACCESS:          0  HIT:          0  MISS:          0
L1I PREFETCH  ACCESS:   26686520  HIT:   25315720  MISS:    1370800
L1I WRITEBACK ACCESS:          0  HIT:          0  MISS:          0
L1I PREFETCH  REQUESTED:   38156952  ISSUED:   38156952  USEFUL:    1049426  USELESS:     321391
L1I AVERAGE MISS LATENCY: 33.8834 cycles
L2C TOTAL     ACCESS:    7615208  HIT:    6582584  MISS:    1032624
L2C LOAD      ACCESS:    2278426  HIT:    2072040  MISS:     206386
L2C RFO       ACCESS:     103677  HIT:      64118  MISS:      39559
L2C PREFETCH  ACCESS:    4976188  HIT:    4190783  MISS:     785405
L2C WRITEBACK ACCESS:     256917  HIT:     255643  MISS:       1274
L2C PREFETCH  REQUESTED:    7542339  ISSUED:    7538743  USEFUL:      19493  USELESS:     764413
L2C AVERAGE MISS LATENCY: 47.4732 cycles
LLC TOTAL     ACCESS:    2319872  HIT:    2187274  MISS:     132598
LLC LOAD      ACCESS:     205958  HIT:     187619  MISS:      18339
LLC RFO       ACCESS:      39554  HIT:      30904  MISS:       8650
LLC PREFETCH  ACCESS:    1937974  HIT:    1832629  MISS:     105345
LLC WRITEBACK ACCESS:     136386  HIT:     136122  MISS:        264
LLC PREFETCH  REQUESTED:          0  ISSUED:          0  USEFUL:      10504  USELESS:      92451
LLC AVERAGE MISS LATENCY: 172.165 cycles
Major fault: 0 Minor fault: 6356
CPU 0 L1I EPI prefetcher final stats
CPU 0 L1D next line prefetcher final stats

DRAM Statistics
 CHANNEL 0
 RQ ROW_BUFFER_HIT:      26460  ROW_BUFFER_MISS:     105869
 DBUS_CONGESTED:      58276
 WQ ROW_BUFFER_HIT:       8280  ROW_BUFFER_MISS:      38200  FULL:          0

 AVG_CONGESTED_CYCLE: 5

CPU 0 Branch Prediction Accuracy: 94.3582% MPKI: 11.8964 Average ROB Occupancy at Mispredict: 65.8081

Branch types
NOT_BRANCH: 39456587 78.9132%
BRANCH_DIRECT_JUMP: 445350 0.8907%
BRANCH_INDIRECT: 131149 0.262298%
BRANCH_CONDITIONAL: 8130188 16.2604%
BRANCH_DIRECT_CALL: 732485 1.46497%
BRANCH_INDIRECT_CALL: 172369 0.344738%
BRANCH_RETURN: 931558 1.86312%
BRANCH_OTHER: 0 0%

