Initialize SIGNATURE TABLE
ST_SET: 1
ST_WAY: 256
ST_TAG_BIT: 16
ST_TAG_MASK: ffff

Initialize PATTERN TABLE
PT_SET: 512
PT_WAY: 4
SIG_DELTA_BIT: 7
C_SIG_BIT: 4
C_DELTA_BIT: 4

Initialize PREFETCH FILTER
FILTER_SET: 1024

*** ChampSim Multicore Out-of-Order Simulator ***

Warmup Instructions: 50000000
Simulation Instructions: 50000000
Number of CPUs: 1
LLC sets: 2048
LLC ways: 16
Off-chip DRAM Size: 4096 MB Channels: 1 Width: 64-bit Data Rate: 3200 MT/s

CPU 0 runs /home/xuf220/ChampSim/dpc3_traces/server_033.champsimtrace.xz
CPU 0 Bimodal branch predictor
CPU 0 EPI prefetcher
CPU 0 L1D next line prefetcher
Heartbeat CPU 0 instructions: 10000001 cycles: 3341337 heartbeat IPC: 2.99281 cumulative IPC: 2.99281 (Simulation time: 0 hr 0 min 26 sec) 
Heartbeat CPU 0 instructions: 20000002 cycles: 6682006 heartbeat IPC: 2.99341 cumulative IPC: 2.99311 (Simulation time: 0 hr 0 min 53 sec) 
Heartbeat CPU 0 instructions: 30000001 cycles: 10012132 heartbeat IPC: 3.00289 cumulative IPC: 2.99636 (Simulation time: 0 hr 1 min 20 sec) 
Heartbeat CPU 0 instructions: 40000000 cycles: 13351285 heartbeat IPC: 2.99477 cumulative IPC: 2.99597 (Simulation time: 0 hr 1 min 47 sec) 
Heartbeat CPU 0 instructions: 50000000 cycles: 16689929 heartbeat IPC: 2.99523 cumulative IPC: 2.99582 (Simulation time: 0 hr 2 min 14 sec) 

Warmup complete CPU 0 instructions: 50000004 cycles: 16689930 (Simulation time: 0 hr 2 min 14 sec) 

Heartbeat CPU 0 instructions: 60000000 cycles: 24179063 heartbeat IPC: 1.33527 cumulative IPC: 1.33527 (Simulation time: 0 hr 2 min 38 sec) 
Heartbeat CPU 0 instructions: 70000000 cycles: 31615309 heartbeat IPC: 1.34476 cumulative IPC: 1.34 (Simulation time: 0 hr 3 min 2 sec) 
Heartbeat CPU 0 instructions: 80000000 cycles: 39855808 heartbeat IPC: 1.21352 cumulative IPC: 1.29501 (Simulation time: 0 hr 3 min 26 sec) 
Heartbeat CPU 0 instructions: 90000003 cycles: 47422171 heartbeat IPC: 1.32164 cumulative IPC: 1.30156 (Simulation time: 0 hr 3 min 51 sec) 
Heartbeat CPU 0 instructions: 100000000 cycles: 54949312 heartbeat IPC: 1.32853 cumulative IPC: 1.30687 (Simulation time: 0 hr 4 min 15 sec) 
Finished CPU 0 instructions: 50000000 cycles: 38259389 cumulative IPC: 1.30687 (Simulation time: 0 hr 4 min 15 sec) 

ChampSim completed all CPUs

Region of Interest Statistics

CPU 0 cumulative IPC: 1.30687 instructions: 50000000 cycles: 38259389
L1D TOTAL     ACCESS:   19510871  HIT:   18027687  MISS:    1483184
L1D LOAD      ACCESS:    6762252  HIT:    6083484  MISS:     678768
L1D RFO       ACCESS:    6181529  HIT:    6029733  MISS:     151796
L1D PREFETCH  ACCESS:    6567090  HIT:    5914470  MISS:     652620
L1D WRITEBACK ACCESS:          0  HIT:          0  MISS:          0
L1D PREFETCH  REQUESTED:    6806744  ISSUED:    6701643  USEFUL:     143644  USELESS:     508982
L1D AVERAGE MISS LATENCY: 23.5784 cycles
L1I TOTAL     ACCESS:   32643427  HIT:   28863735  MISS:    3779692
L1I LOAD      ACCESS:    9487692  HIT:    9468516  MISS:      19176
L1I RFO       ACCESS:          0  HIT:          0  MISS:          0
L1I PREFETCH  ACCESS:   23155735  HIT:   19395219  MISS:    3760516
L1I WRITEBACK ACCESS:          0  HIT:          0  MISS:          0
L1I PREFETCH  REQUESTED:   28728257  ISSUED:   28728257  USEFUL:    3342165  USELESS:     418347
L1I AVERAGE MISS LATENCY: 15.5558 cycles
L2C TOTAL     ACCESS:    7314908  HIT:    7031855  MISS:     283053
L2C LOAD      ACCESS:     677741  HIT:     561413  MISS:     116328
L2C RFO       ACCESS:     151067  HIT:     130717  MISS:      20350
L2C PREFETCH  ACCESS:    6119368  HIT:    5974340  MISS:     145028
L2C WRITEBACK ACCESS:     366732  HIT:     365385  MISS:       1347
L2C PREFETCH  REQUESTED:    6664977  ISSUED:    6634162  USEFUL:       9223  USELESS:     135099
L2C AVERAGE MISS LATENCY: 51.8544 cycles
LLC TOTAL     ACCESS:    2267403  HIT:    2199560  MISS:      67843
LLC LOAD      ACCESS:     116301  HIT:     102136  MISS:      14165
LLC RFO       ACCESS:      20350  HIT:      17538  MISS:       2812
LLC PREFETCH  ACCESS:    2027406  HIT:    1976868  MISS:      50538
LLC WRITEBACK ACCESS:     103346  HIT:     103018  MISS:        328
LLC PREFETCH  REQUESTED:          0  ISSUED:          0  USEFUL:       7788  USELESS:      41756
LLC AVERAGE MISS LATENCY: 173.433 cycles
Major fault: 0 Minor fault: 2482
CPU 0 L1I EPI prefetcher final stats
CPU 0 L1D next line prefetcher final stats

DRAM Statistics
 CHANNEL 0
 RQ ROW_BUFFER_HIT:      10540  ROW_BUFFER_MISS:      56967
 DBUS_CONGESTED:      28482
 WQ ROW_BUFFER_HIT:       3712  ROW_BUFFER_MISS:      17891  FULL:          0

 AVG_CONGESTED_CYCLE: 5

CPU 0 Branch Prediction Accuracy: 93.3376% MPKI: 13.035 Average ROB Occupancy at Mispredict: 65.3434

Branch types
NOT_BRANCH: 40217109 80.4342%
BRANCH_DIRECT_JUMP: 774599 1.5492%
BRANCH_INDIRECT: 108806 0.217612%
BRANCH_CONDITIONAL: 6379332 12.7587%
BRANCH_DIRECT_CALL: 1048808 2.09762%
BRANCH_INDIRECT_CALL: 211109 0.422218%
BRANCH_RETURN: 1259925 2.51985%
BRANCH_OTHER: 0 0%

