Initialize SIGNATURE TABLE
ST_SET: 1
ST_WAY: 256
ST_TAG_BIT: 16
ST_TAG_MASK: ffff

Initialize PATTERN TABLE
PT_SET: 512
PT_WAY: 4
SIG_DELTA_BIT: 7
C_SIG_BIT: 4
C_DELTA_BIT: 4

Initialize PREFETCH FILTER
FILTER_SET: 1024

*** ChampSim Multicore Out-of-Order Simulator ***

Warmup Instructions: 50000000
Simulation Instructions: 50000000
Number of CPUs: 1
LLC sets: 2048
LLC ways: 16
Off-chip DRAM Size: 4096 MB Channels: 1 Width: 64-bit Data Rate: 3200 MT/s

CPU 0 runs /home/xuf220/ChampSim/dpc3_traces/server_013.champsimtrace.xz
CPU 0 Bimodal branch predictor
CPU 0 EPI prefetcher
CPU 0 L1D next line prefetcher
Heartbeat CPU 0 instructions: 10000000 cycles: 3215592 heartbeat IPC: 3.10985 cumulative IPC: 3.10985 (Simulation time: 0 hr 0 min 25 sec) 
Heartbeat CPU 0 instructions: 20000001 cycles: 6420113 heartbeat IPC: 3.12059 cumulative IPC: 3.11521 (Simulation time: 0 hr 0 min 50 sec) 
Heartbeat CPU 0 instructions: 30000002 cycles: 9628062 heartbeat IPC: 3.11726 cumulative IPC: 3.11589 (Simulation time: 0 hr 1 min 16 sec) 
Heartbeat CPU 0 instructions: 40000002 cycles: 12831504 heartbeat IPC: 3.12164 cumulative IPC: 3.11733 (Simulation time: 0 hr 1 min 41 sec) 
Heartbeat CPU 0 instructions: 50000000 cycles: 16035433 heartbeat IPC: 3.12117 cumulative IPC: 3.11809 (Simulation time: 0 hr 2 min 7 sec) 

Warmup complete CPU 0 instructions: 50000004 cycles: 16035434 (Simulation time: 0 hr 2 min 7 sec) 

Heartbeat CPU 0 instructions: 60000002 cycles: 24459822 heartbeat IPC: 1.18703 cumulative IPC: 1.18703 (Simulation time: 0 hr 2 min 30 sec) 
Heartbeat CPU 0 instructions: 70000003 cycles: 33043337 heartbeat IPC: 1.16502 cumulative IPC: 1.17592 (Simulation time: 0 hr 2 min 53 sec) 
Heartbeat CPU 0 instructions: 80000001 cycles: 41074334 heartbeat IPC: 1.24518 cumulative IPC: 1.19814 (Simulation time: 0 hr 3 min 16 sec) 
Heartbeat CPU 0 instructions: 90000003 cycles: 49334601 heartbeat IPC: 1.21061 cumulative IPC: 1.20123 (Simulation time: 0 hr 3 min 38 sec) 
Heartbeat CPU 0 instructions: 100000003 cycles: 57641240 heartbeat IPC: 1.20386 cumulative IPC: 1.20176 (Simulation time: 0 hr 4 min 1 sec) 
Finished CPU 0 instructions: 50000003 cycles: 41605807 cumulative IPC: 1.20176 (Simulation time: 0 hr 4 min 1 sec) 

ChampSim completed all CPUs

Region of Interest Statistics

CPU 0 cumulative IPC: 1.20176 instructions: 50000003 cycles: 41605807
L1D TOTAL     ACCESS:   18138565  HIT:   17070722  MISS:    1067843
L1D LOAD      ACCESS:    6711148  HIT:    6214850  MISS:     496298
L1D RFO       ACCESS:    4953066  HIT:    4872726  MISS:      80340
L1D PREFETCH  ACCESS:    6474351  HIT:    5983146  MISS:     491205
L1D WRITEBACK ACCESS:          0  HIT:          0  MISS:          0
L1D PREFETCH  REQUESTED:    6752637  ISSUED:    6652799  USEFUL:     138977  USELESS:     352237
L1D AVERAGE MISS LATENCY: 42.192 cycles
L1I TOTAL     ACCESS:   32731745  HIT:   30857249  MISS:    1874496
L1I LOAD      ACCESS:    8665488  HIT:    8621947  MISS:      43541
L1I RFO       ACCESS:          0  HIT:          0  MISS:          0
L1I PREFETCH  ACCESS:   24066257  HIT:   22235302  MISS:    1830955
L1I WRITEBACK ACCESS:          0  HIT:          0  MISS:          0
L1I PREFETCH  REQUESTED:   30305756  ISSUED:   30305756  USEFUL:    1396234  USELESS:     434718
L1I AVERAGE MISS LATENCY: 34.5356 cycles
L2C TOTAL     ACCESS:    3756287  HIT:    2395035  MISS:    1361252
L2C LOAD      ACCESS:     497839  HIT:     232331  MISS:     265508
L2C RFO       ACCESS:      78970  HIT:      30867  MISS:      48103
L2C PREFETCH  ACCESS:    2903577  HIT:    1857537  MISS:    1046040
L2C WRITEBACK ACCESS:     275901  HIT:     274300  MISS:       1601
L2C PREFETCH  REQUESTED:    3706607  ISSUED:    3701299  USEFUL:      23746  USELESS:    1021755
L2C AVERAGE MISS LATENCY: 48.3513 cycles
LLC TOTAL     ACCESS:    2533106  HIT:    2350975  MISS:     182131
LLC LOAD      ACCESS:     265236  HIT:     242150  MISS:      23086
LLC RFO       ACCESS:      48096  HIT:      37825  MISS:      10271
LLC PREFETCH  ACCESS:    2045756  HIT:    1897390  MISS:     148366
LLC WRITEBACK ACCESS:     174018  HIT:     173610  MISS:        408
LLC PREFETCH  REQUESTED:          0  ISSUED:          0  USEFUL:      11774  USELESS:     134863
LLC AVERAGE MISS LATENCY: 174.54 cycles
Major fault: 0 Minor fault: 6208
CPU 0 L1I EPI prefetcher final stats
CPU 0 L1D next line prefetcher final stats

DRAM Statistics
 CHANNEL 0
 RQ ROW_BUFFER_HIT:      31583  ROW_BUFFER_MISS:     150126
 DBUS_CONGESTED:      80832
 WQ ROW_BUFFER_HIT:      11465  ROW_BUFFER_MISS:      53297  FULL:          0

 AVG_CONGESTED_CYCLE: 5

CPU 0 Branch Prediction Accuracy: 92.974% MPKI: 13.0495 Average ROB Occupancy at Mispredict: 57.6758

Branch types
NOT_BRANCH: 40713049 81.4261%
BRANCH_DIRECT_JUMP: 463697 0.927394%
BRANCH_INDIRECT: 146542 0.293084%
BRANCH_CONDITIONAL: 6981921 13.9638%
BRANCH_DIRECT_CALL: 665003 1.33001%
BRANCH_INDIRECT_CALL: 165150 0.3303%
BRANCH_RETURN: 864309 1.72862%
BRANCH_OTHER: 0 0%

