Initialize SIGNATURE TABLE
ST_SET: 1
ST_WAY: 256
ST_TAG_BIT: 16
ST_TAG_MASK: ffff

Initialize PATTERN TABLE
PT_SET: 512
PT_WAY: 4
SIG_DELTA_BIT: 7
C_SIG_BIT: 4
C_DELTA_BIT: 4

Initialize PREFETCH FILTER
FILTER_SET: 1024

*** ChampSim Multicore Out-of-Order Simulator ***

Warmup Instructions: 50000000
Simulation Instructions: 50000000
Number of CPUs: 1
LLC sets: 2048
LLC ways: 16
Off-chip DRAM Size: 4096 MB Channels: 1 Width: 64-bit Data Rate: 3200 MT/s

CPU 0 runs /home/xuf220/ChampSim/dpc3_traces/server_026.champsimtrace.xz
CPU 0 Bimodal branch predictor
CPU 0 EPI prefetcher
CPU 0 L1D next line prefetcher
Heartbeat CPU 0 instructions: 10000000 cycles: 3523685 heartbeat IPC: 2.83794 cumulative IPC: 2.83794 (Simulation time: 0 hr 0 min 27 sec) 
Heartbeat CPU 0 instructions: 20000002 cycles: 7052707 heartbeat IPC: 2.83365 cumulative IPC: 2.83579 (Simulation time: 0 hr 0 min 54 sec) 
Heartbeat CPU 0 instructions: 30000000 cycles: 10572096 heartbeat IPC: 2.8414 cumulative IPC: 2.83766 (Simulation time: 0 hr 1 min 21 sec) 
Heartbeat CPU 0 instructions: 40000003 cycles: 14100358 heartbeat IPC: 2.83426 cumulative IPC: 2.83681 (Simulation time: 0 hr 1 min 48 sec) 
Heartbeat CPU 0 instructions: 50000000 cycles: 17621700 heartbeat IPC: 2.83983 cumulative IPC: 2.83741 (Simulation time: 0 hr 2 min 15 sec) 

Warmup complete CPU 0 instructions: 50000004 cycles: 17621701 (Simulation time: 0 hr 2 min 15 sec) 

*** Reached end of trace for Core: 0 Repeating trace: /home/xuf220/ChampSim/dpc3_traces/server_026.champsimtrace.xz
Heartbeat CPU 0 instructions: 60000000 cycles: 25647109 heartbeat IPC: 1.24604 cumulative IPC: 1.24604 (Simulation time: 0 hr 2 min 39 sec) 
Heartbeat CPU 0 instructions: 70000003 cycles: 33555798 heartbeat IPC: 1.26443 cumulative IPC: 1.25517 (Simulation time: 0 hr 3 min 2 sec) 
Heartbeat CPU 0 instructions: 80000003 cycles: 41556690 heartbeat IPC: 1.24986 cumulative IPC: 1.2534 (Simulation time: 0 hr 3 min 26 sec) 
Heartbeat CPU 0 instructions: 90000002 cycles: 49456134 heartbeat IPC: 1.26591 cumulative IPC: 1.2565 (Simulation time: 0 hr 3 min 50 sec) 
Heartbeat CPU 0 instructions: 100000000 cycles: 57430549 heartbeat IPC: 1.25401 cumulative IPC: 1.256 (Simulation time: 0 hr 4 min 14 sec) 
Finished CPU 0 instructions: 50000000 cycles: 39808849 cumulative IPC: 1.256 (Simulation time: 0 hr 4 min 14 sec) 

ChampSim completed all CPUs

Region of Interest Statistics

CPU 0 cumulative IPC: 1.256 instructions: 50000000 cycles: 39808849
L1D TOTAL     ACCESS:   21308158  HIT:   19661126  MISS:    1647032
L1D LOAD      ACCESS:    7676255  HIT:    6953507  MISS:     722748
L1D RFO       ACCESS:    6272931  HIT:    5985252  MISS:     287679
L1D PREFETCH  ACCESS:    7358972  HIT:    6722367  MISS:     636605
L1D WRITEBACK ACCESS:          0  HIT:          0  MISS:          0
L1D PREFETCH  REQUESTED:    7729997  ISSUED:    7609105  USEFUL:     157521  USELESS:     479096
L1D AVERAGE MISS LATENCY: 23.6575 cycles
L1I TOTAL     ACCESS:   28396054  HIT:   25043546  MISS:    3352508
L1I LOAD      ACCESS:    9192169  HIT:    9143668  MISS:      48501
L1I RFO       ACCESS:          0  HIT:          0  MISS:          0
L1I PREFETCH  ACCESS:   19203885  HIT:   15899878  MISS:    3304007
L1I WRITEBACK ACCESS:          0  HIT:          0  MISS:          0
L1I PREFETCH  REQUESTED:   23994678  ISSUED:   23994678  USEFUL:    2741110  USELESS:     562964
L1I AVERAGE MISS LATENCY: 18.9913 cycles
L2C TOTAL     ACCESS:    6824928  HIT:    6038200  MISS:     786728
L2C LOAD      ACCESS:     682201  HIT:     545633  MISS:     136568
L2C RFO       ACCESS:     284781  HIT:     187019  MISS:      97762
L2C PREFETCH  ACCESS:    5296767  HIT:    4748242  MISS:     548525
L2C WRITEBACK ACCESS:     561179  HIT:     557306  MISS:       3873
L2C PREFETCH  REQUESTED:    5500720  ISSUED:    5494870  USEFUL:      14976  USELESS:     532775
L2C AVERAGE MISS LATENCY: 38.998 cycles
LLC TOTAL     ACCESS:    2454931  HIT:    2416961  MISS:      37970
LLC LOAD      ACCESS:     136452  HIT:     132824  MISS:       3628
LLC RFO       ACCESS:      97759  HIT:      83135  MISS:      14624
LLC PREFETCH  ACCESS:    2056009  HIT:    2036520  MISS:      19489
LLC WRITEBACK ACCESS:     164711  HIT:     164482  MISS:        229
LLC PREFETCH  REQUESTED:          0  ISSUED:          0  USEFUL:       1103  USELESS:      18265
LLC AVERAGE MISS LATENCY: 186.236 cycles
Major fault: 0 Minor fault: 2168
CPU 0 L1I EPI prefetcher final stats
CPU 0 L1D next line prefetcher final stats

DRAM Statistics
 CHANNEL 0
 RQ ROW_BUFFER_HIT:      13195  ROW_BUFFER_MISS:      24543
 DBUS_CONGESTED:      24386
 WQ ROW_BUFFER_HIT:       1558  ROW_BUFFER_MISS:      14577  FULL:          0

 AVG_CONGESTED_CYCLE: 6

CPU 0 Branch Prediction Accuracy: 91.6197% MPKI: 15.3382 Average ROB Occupancy at Mispredict: 62.8866

Branch types
NOT_BRANCH: 40848500 81.697%
BRANCH_DIRECT_JUMP: 522044 1.04409%
BRANCH_INDIRECT: 204034 0.408068%
BRANCH_CONDITIONAL: 6212951 12.4259%
BRANCH_DIRECT_CALL: 932388 1.86478%
BRANCH_INDIRECT_CALL: 173763 0.347526%
BRANCH_RETURN: 1106146 2.21229%
BRANCH_OTHER: 0 0%

