Initialize SIGNATURE TABLE
ST_SET: 1
ST_WAY: 256
ST_TAG_BIT: 16
ST_TAG_MASK: ffff

Initialize PATTERN TABLE
PT_SET: 512
PT_WAY: 4
SIG_DELTA_BIT: 7
C_SIG_BIT: 4
C_DELTA_BIT: 4

Initialize PREFETCH FILTER
FILTER_SET: 1024

*** ChampSim Multicore Out-of-Order Simulator ***

Warmup Instructions: 50000000
Simulation Instructions: 50000000
Number of CPUs: 1
LLC sets: 2048
LLC ways: 16
Off-chip DRAM Size: 4096 MB Channels: 1 Width: 64-bit Data Rate: 3200 MT/s

CPU 0 runs /home/xuf220/ChampSim/dpc3_traces/spec_gobmk_002.champsimtrace.xz
CPU 0 Bimodal branch predictor
CPU 0 EPI prefetcher
CPU 0 L1D next line prefetcher
Heartbeat CPU 0 instructions: 10000001 cycles: 3287548 heartbeat IPC: 3.04178 cumulative IPC: 3.04178 (Simulation time: 0 hr 0 min 23 sec) 
Heartbeat CPU 0 instructions: 20000000 cycles: 6619269 heartbeat IPC: 3.00145 cumulative IPC: 3.02148 (Simulation time: 0 hr 0 min 46 sec) 
Heartbeat CPU 0 instructions: 30000000 cycles: 9957252 heartbeat IPC: 2.99582 cumulative IPC: 3.01288 (Simulation time: 0 hr 1 min 10 sec) 
Heartbeat CPU 0 instructions: 40000000 cycles: 13266719 heartbeat IPC: 3.02163 cumulative IPC: 3.01506 (Simulation time: 0 hr 1 min 34 sec) 
Heartbeat CPU 0 instructions: 50000003 cycles: 16530295 heartbeat IPC: 3.06412 cumulative IPC: 3.02475 (Simulation time: 0 hr 1 min 58 sec) 

Warmup complete CPU 0 instructions: 50000003 cycles: 16530295 (Simulation time: 0 hr 1 min 58 sec) 

Heartbeat CPU 0 instructions: 60000001 cycles: 25078913 heartbeat IPC: 1.16978 cumulative IPC: 1.16978 (Simulation time: 0 hr 2 min 23 sec) 
Heartbeat CPU 0 instructions: 70000001 cycles: 33589943 heartbeat IPC: 1.17495 cumulative IPC: 1.17236 (Simulation time: 0 hr 2 min 47 sec) 
Heartbeat CPU 0 instructions: 80000002 cycles: 42097604 heartbeat IPC: 1.17541 cumulative IPC: 1.17337 (Simulation time: 0 hr 3 min 11 sec) 
Heartbeat CPU 0 instructions: 90000001 cycles: 50552102 heartbeat IPC: 1.1828 cumulative IPC: 1.17572 (Simulation time: 0 hr 3 min 33 sec) 
Heartbeat CPU 0 instructions: 100000003 cycles: 59242904 heartbeat IPC: 1.15064 cumulative IPC: 1.17061 (Simulation time: 0 hr 3 min 56 sec) 
Finished CPU 0 instructions: 50000000 cycles: 42712609 cumulative IPC: 1.17061 (Simulation time: 0 hr 3 min 56 sec) 

ChampSim completed all CPUs

Region of Interest Statistics

CPU 0 cumulative IPC: 1.17061 instructions: 50000000 cycles: 42712609
L1D TOTAL     ACCESS:   18115291  HIT:   17992143  MISS:     123148
L1D LOAD      ACCESS:    6894907  HIT:    6860657  MISS:      34250
L1D RFO       ACCESS:    4402478  HIT:    4359821  MISS:      42657
L1D PREFETCH  ACCESS:    6817906  HIT:    6771665  MISS:      46241
L1D WRITEBACK ACCESS:          0  HIT:          0  MISS:          0
L1D PREFETCH  REQUESTED:    6897810  ISSUED:    6830809  USEFUL:      17168  USELESS:      29254
L1D AVERAGE MISS LATENCY: 50.1169 cycles
L1I TOTAL     ACCESS:   61972590  HIT:   59621636  MISS:    2350954
L1I LOAD      ACCESS:    8944908  HIT:    8849093  MISS:      95815
L1I RFO       ACCESS:          0  HIT:          0  MISS:          0
L1I PREFETCH  ACCESS:   53027682  HIT:   50772543  MISS:    2255139
L1I WRITEBACK ACCESS:          0  HIT:          0  MISS:          0
L1I PREFETCH  REQUESTED:   71110917  ISSUED:   71110917  USEFUL:     980791  USELESS:    1274376
L1I AVERAGE MISS LATENCY: 14.7191 cycles
L2C TOTAL     ACCESS:    3960138  HIT:    3921802  MISS:      38336
L2C LOAD      ACCESS:     114422  HIT:     100771  MISS:      13651
L2C RFO       ACCESS:      42521  HIT:      39603  MISS:       2918
L2C PREFETCH  ACCESS:    3728990  HIT:    3707369  MISS:      21621
L2C WRITEBACK ACCESS:      74205  HIT:      74059  MISS:        146
L2C PREFETCH  REQUESTED:    3594314  ISSUED:    3593915  USEFUL:       2261  USELESS:      19671
L2C AVERAGE MISS LATENCY: 121.684 cycles
LLC TOTAL     ACCESS:     108060  HIT:      69434  MISS:      38626
LLC LOAD      ACCESS:      13651  HIT:       5228  MISS:       8423
LLC RFO       ACCESS:       2918  HIT:       1305  MISS:       1613
LLC PREFETCH  ACCESS:      73371  HIT:      45429  MISS:      27942
LLC WRITEBACK ACCESS:      18120  HIT:      17472  MISS:        648
LLC PREFETCH  REQUESTED:          0  ISSUED:          0  USEFUL:       2572  USELESS:      24341
LLC AVERAGE MISS LATENCY: 186.072 cycles
Major fault: 0 Minor fault: 2776
CPU 0 L1I EPI prefetcher final stats
CPU 0 L1D next line prefetcher final stats

DRAM Statistics
 CHANNEL 0
 RQ ROW_BUFFER_HIT:       2996  ROW_BUFFER_MISS:      34982
 DBUS_CONGESTED:      23836
 WQ ROW_BUFFER_HIT:        767  ROW_BUFFER_MISS:      14892  FULL:          0

 AVG_CONGESTED_CYCLE: 5

CPU 0 Branch Prediction Accuracy: 86.4799% MPKI: 23.0751 Average ROB Occupancy at Mispredict: 28.2393

Branch types
NOT_BRANCH: 41466074 82.9321%
BRANCH_DIRECT_JUMP: 464313 0.928626%
BRANCH_INDIRECT: 32 6.4e-05%
BRANCH_CONDITIONAL: 7069455 14.1389%
BRANCH_DIRECT_CALL: 499587 0.999174%
BRANCH_INDIRECT_CALL: 342 0.000684%
BRANCH_RETURN: 499906 0.999812%
BRANCH_OTHER: 0 0%

