Initialize SIGNATURE TABLE
ST_SET: 1
ST_WAY: 256
ST_TAG_BIT: 16
ST_TAG_MASK: ffff

Initialize PATTERN TABLE
PT_SET: 512
PT_WAY: 4
SIG_DELTA_BIT: 7
C_SIG_BIT: 4
C_DELTA_BIT: 4

Initialize PREFETCH FILTER
FILTER_SET: 1024

*** ChampSim Multicore Out-of-Order Simulator ***

Warmup Instructions: 50000000
Simulation Instructions: 50000000
Number of CPUs: 1
LLC sets: 2048
LLC ways: 16
Off-chip DRAM Size: 4096 MB Channels: 1 Width: 64-bit Data Rate: 3200 MT/s

CPU 0 runs /home/xuf220/ChampSim/dpc3_traces/spec_gobmk_001.champsimtrace.xz
CPU 0 Bimodal branch predictor
CPU 0 EPI prefetcher
CPU 0 L1D next line prefetcher
Heartbeat CPU 0 instructions: 10000003 cycles: 3508132 heartbeat IPC: 2.85052 cumulative IPC: 2.85052 (Simulation time: 0 hr 0 min 24 sec) 
Heartbeat CPU 0 instructions: 20000002 cycles: 6989057 heartbeat IPC: 2.8728 cumulative IPC: 2.86162 (Simulation time: 0 hr 0 min 48 sec) 
Heartbeat CPU 0 instructions: 30000002 cycles: 10508611 heartbeat IPC: 2.84127 cumulative IPC: 2.8548 (Simulation time: 0 hr 1 min 12 sec) 
Heartbeat CPU 0 instructions: 40000001 cycles: 14028514 heartbeat IPC: 2.84099 cumulative IPC: 2.85134 (Simulation time: 0 hr 1 min 35 sec) 
Heartbeat CPU 0 instructions: 50000001 cycles: 17569294 heartbeat IPC: 2.82424 cumulative IPC: 2.84587 (Simulation time: 0 hr 1 min 59 sec) 

Warmup complete CPU 0 instructions: 50000001 cycles: 17569294 (Simulation time: 0 hr 1 min 59 sec) 

Heartbeat CPU 0 instructions: 60000000 cycles: 27264137 heartbeat IPC: 1.03148 cumulative IPC: 1.03148 (Simulation time: 0 hr 2 min 23 sec) 
Heartbeat CPU 0 instructions: 70000002 cycles: 36692150 heartbeat IPC: 1.06067 cumulative IPC: 1.04587 (Simulation time: 0 hr 2 min 47 sec) 
Heartbeat CPU 0 instructions: 80000003 cycles: 46529134 heartbeat IPC: 1.01657 cumulative IPC: 1.03592 (Simulation time: 0 hr 3 min 10 sec) 
Heartbeat CPU 0 instructions: 90000001 cycles: 56175976 heartbeat IPC: 1.03661 cumulative IPC: 1.03609 (Simulation time: 0 hr 3 min 32 sec) 
Heartbeat CPU 0 instructions: 100000000 cycles: 66013862 heartbeat IPC: 1.01648 cumulative IPC: 1.03211 (Simulation time: 0 hr 3 min 56 sec) 
Finished CPU 0 instructions: 50000002 cycles: 48444569 cumulative IPC: 1.03211 (Simulation time: 0 hr 3 min 56 sec) 

ChampSim completed all CPUs

Region of Interest Statistics

CPU 0 cumulative IPC: 1.03211 instructions: 50000002 cycles: 48444569
L1D TOTAL     ACCESS:   18489432  HIT:   18109834  MISS:     379598
L1D LOAD      ACCESS:    7455191  HIT:    7321558  MISS:     133633
L1D RFO       ACCESS:    3715520  HIT:    3611179  MISS:     104341
L1D PREFETCH  ACCESS:    7318721  HIT:    7177097  MISS:     141624
L1D WRITEBACK ACCESS:          0  HIT:          0  MISS:          0
L1D PREFETCH  REQUESTED:    7460678  ISSUED:    7377267  USEFUL:      46916  USELESS:      94714
L1D AVERAGE MISS LATENCY: 34.2091 cycles
L1I TOTAL     ACCESS:   54178280  HIT:   52549934  MISS:    1628346
L1I LOAD      ACCESS:    9033516  HIT:    8965714  MISS:      67802
L1I RFO       ACCESS:          0  HIT:          0  MISS:          0
L1I PREFETCH  ACCESS:   45144764  HIT:   43584220  MISS:    1560544
L1I WRITEBACK ACCESS:          0  HIT:          0  MISS:          0
L1I PREFETCH  REQUESTED:   60839904  ISSUED:   60839904  USEFUL:     698510  USELESS:     862005
L1I AVERAGE MISS LATENCY: 15.1523 cycles
L2C TOTAL     ACCESS:    3156536  HIT:    3025438  MISS:     131098
L2C LOAD      ACCESS:     167050  HIT:     132161  MISS:      34889
L2C RFO       ACCESS:     103963  HIT:      69293  MISS:      34670
L2C PREFETCH  ACCESS:    2746225  HIT:    2684773  MISS:      61452
L2C WRITEBACK ACCESS:     139298  HIT:     139211  MISS:         87
L2C PREFETCH  REQUESTED:    2634369  ISSUED:    2633515  USEFUL:       4846  USELESS:      56861
L2C AVERAGE MISS LATENCY: 65.1041 cycles
LLC TOTAL     ACCESS:     298623  HIT:     257328  MISS:      41295
LLC LOAD      ACCESS:      34888  HIT:      26686  MISS:       8202
LLC RFO       ACCESS:      34670  HIT:      26892  MISS:       7778
LLC PREFETCH  ACCESS:     183424  HIT:     158428  MISS:      24996
LLC WRITEBACK ACCESS:      45641  HIT:      45322  MISS:        319
LLC PREFETCH  REQUESTED:          0  ISSUED:          0  USEFUL:       1390  USELESS:      21589
LLC AVERAGE MISS LATENCY: 177.559 cycles
Major fault: 0 Minor fault: 4158
CPU 0 L1I EPI prefetcher final stats
CPU 0 L1D next line prefetcher final stats

DRAM Statistics
 CHANNEL 0
 RQ ROW_BUFFER_HIT:       5577  ROW_BUFFER_MISS:      35398
 DBUS_CONGESTED:      26210
 WQ ROW_BUFFER_HIT:       1609  ROW_BUFFER_MISS:      16415  FULL:          0

 AVG_CONGESTED_CYCLE: 5

CPU 0 Branch Prediction Accuracy: 88.3128% MPKI: 21.7482 Average ROB Occupancy at Mispredict: 35.8852

Branch types
NOT_BRANCH: 40695354 81.3907%
BRANCH_DIRECT_JUMP: 422107 0.844214%
BRANCH_INDIRECT: 65 0.00013%
BRANCH_CONDITIONAL: 8105001 16.21%
BRANCH_DIRECT_CALL: 374912 0.749824%
BRANCH_INDIRECT_CALL: 13657 0.027314%
BRANCH_RETURN: 388556 0.777112%
BRANCH_OTHER: 0 0%

