Initialize SIGNATURE TABLE
ST_SET: 1
ST_WAY: 256
ST_TAG_BIT: 16
ST_TAG_MASK: ffff

Initialize PATTERN TABLE
PT_SET: 512
PT_WAY: 4
SIG_DELTA_BIT: 7
C_SIG_BIT: 4
C_DELTA_BIT: 4

Initialize PREFETCH FILTER
FILTER_SET: 1024

*** ChampSim Multicore Out-of-Order Simulator ***

Warmup Instructions: 50000000
Simulation Instructions: 50000000
Number of CPUs: 1
LLC sets: 2048
LLC ways: 16
Off-chip DRAM Size: 4096 MB Channels: 1 Width: 64-bit Data Rate: 3200 MT/s

CPU 0 runs /home/xubinfang/Desktop/ChampSim/dpc3_traces/client_005.champsimtrace.xz
CPU 0 Bimodal branch predictor
CPU 0 EPI prefetcher
CPU 0 L1D next line prefetcher
Heartbeat CPU 0 instructions: 10000001 cycles: 3291423 heartbeat IPC: 3.0382 cumulative IPC: 3.0382 (Simulation time: 0 hr 0 min 28 sec) 
Heartbeat CPU 0 instructions: 20000002 cycles: 6699100 heartbeat IPC: 2.93455 cumulative IPC: 2.98548 (Simulation time: 0 hr 1 min 0 sec) 
Heartbeat CPU 0 instructions: 30000001 cycles: 10392418 heartbeat IPC: 2.70759 cumulative IPC: 2.88672 (Simulation time: 0 hr 1 min 35 sec) 
Heartbeat CPU 0 instructions: 40000000 cycles: 14070288 heartbeat IPC: 2.71896 cumulative IPC: 2.84287 (Simulation time: 0 hr 2 min 10 sec) 
Heartbeat CPU 0 instructions: 50000001 cycles: 17343642 heartbeat IPC: 3.05497 cumulative IPC: 2.8829 (Simulation time: 0 hr 2 min 39 sec) 

Warmup complete CPU 0 instructions: 50000001 cycles: 17343642 (Simulation time: 0 hr 2 min 39 sec) 

Heartbeat CPU 0 instructions: 60000001 cycles: 26531238 heartbeat IPC: 1.08842 cumulative IPC: 1.08842 (Simulation time: 0 hr 3 min 4 sec) 
Heartbeat CPU 0 instructions: 70000003 cycles: 34636346 heartbeat IPC: 1.23379 cumulative IPC: 1.15656 (Simulation time: 0 hr 3 min 30 sec) 
Heartbeat CPU 0 instructions: 80000001 cycles: 41786781 heartbeat IPC: 1.39852 cumulative IPC: 1.22734 (Simulation time: 0 hr 3 min 58 sec) 
Heartbeat CPU 0 instructions: 90000002 cycles: 51628486 heartbeat IPC: 1.01608 cumulative IPC: 1.1667 (Simulation time: 0 hr 4 min 28 sec) 
Heartbeat CPU 0 instructions: 100000002 cycles: 60274355 heartbeat IPC: 1.15662 cumulative IPC: 1.16467 (Simulation time: 0 hr 4 min 52 sec) 
Finished CPU 0 instructions: 50000001 cycles: 42930713 cumulative IPC: 1.16467 (Simulation time: 0 hr 4 min 52 sec) 

ChampSim completed all CPUs

Region of Interest Statistics

CPU 0 cumulative IPC: 1.16467 instructions: 50000001 cycles: 42930713
L1D TOTAL     ACCESS:   20230692  HIT:   19694592  MISS:     536100
L1D LOAD      ACCESS:    6939248  HIT:    6768497  MISS:     170751
L1D RFO       ACCESS:    6814558  HIT:    6630270  MISS:     184288
L1D PREFETCH  ACCESS:    6476886  HIT:    6295825  MISS:     181061
L1D WRITEBACK ACCESS:          0  HIT:          0  MISS:          0
L1D PREFETCH  REQUESTED:    6962923  ISSUED:    6585006  USEFUL:      60619  USELESS:     120329
L1D AVERAGE MISS LATENCY: 91.5197 cycles
L1I TOTAL     ACCESS:   29554807  HIT:   28475701  MISS:    1079106
L1I LOAD      ACCESS:    9313604  HIT:    9078946  MISS:     234658
L1I RFO       ACCESS:          0  HIT:          0  MISS:          0
L1I PREFETCH  ACCESS:   20241203  HIT:   19396755  MISS:     844448
L1I WRITEBACK ACCESS:          0  HIT:          0  MISS:          0
L1I PREFETCH  REQUESTED:   23512890  ISSUED:   23512890  USEFUL:     549738  USELESS:     294780
L1I AVERAGE MISS LATENCY: 18.575 cycles
L2C TOTAL     ACCESS:    2442999  HIT:    2069022  MISS:     373977
L2C LOAD      ACCESS:     365102  HIT:     238481  MISS:     126621
L2C RFO       ACCESS:     180724  HIT:      32747  MISS:     147977
L2C PREFETCH  ACCESS:    1644114  HIT:    1545812  MISS:      98302
L2C WRITEBACK ACCESS:     253059  HIT:     251982  MISS:       1077
L2C PREFETCH  REQUESTED:    1511172  ISSUED:    1511052  USEFUL:      10106  USELESS:      87935
L2C AVERAGE MISS LATENCY: 124.505 cycles
LLC TOTAL     ACCESS:     927130  HIT:     630768  MISS:     296362
LLC LOAD      ACCESS:     126591  HIT:      77806  MISS:      48785
LLC RFO       ACCESS:     147977  HIT:      16972  MISS:     131005
LLC PREFETCH  ACCESS:     454954  HIT:     339334  MISS:     115620
LLC WRITEBACK ACCESS:     197608  HIT:     196656  MISS:        952
LLC PREFETCH  REQUESTED:          0  ISSUED:          0  USEFUL:      30997  USELESS:      83811
LLC AVERAGE MISS LATENCY: 162.906 cycles
Major fault: 0 Minor fault: 6084
CPU 0 L1I EPI prefetcher final stats
CPU 0 L1D next line prefetcher final stats

DRAM Statistics
 CHANNEL 0
 RQ ROW_BUFFER_HIT:      95482  ROW_BUFFER_MISS:     199919
 DBUS_CONGESTED:     234345
 WQ ROW_BUFFER_HIT:      51645  ROW_BUFFER_MISS:     130782  FULL:          0

 AVG_CONGESTED_CYCLE: 6

CPU 0 Branch Prediction Accuracy: 94.8377% MPKI: 9.44012 Average ROB Occupancy at Mispredict: 63.8792

Branch types
NOT_BRANCH: 40856324 81.7126%
BRANCH_DIRECT_JUMP: 484667 0.969334%
BRANCH_INDIRECT: 85086 0.170172%
BRANCH_CONDITIONAL: 6230887 12.4618%
BRANCH_DIRECT_CALL: 1028917 2.05783%
BRANCH_INDIRECT_CALL: 141825 0.28365%
BRANCH_RETURN: 1171985 2.34397%
BRANCH_OTHER: 0 0%

