Initialize SIGNATURE TABLE
ST_SET: 1
ST_WAY: 256
ST_TAG_BIT: 16
ST_TAG_MASK: ffff

Initialize PATTERN TABLE
PT_SET: 512
PT_WAY: 4
SIG_DELTA_BIT: 7
C_SIG_BIT: 4
C_DELTA_BIT: 4

Initialize PREFETCH FILTER
FILTER_SET: 1024

*** ChampSim Multicore Out-of-Order Simulator ***

Warmup Instructions: 50000000
Simulation Instructions: 50000000
Number of CPUs: 1
LLC sets: 2048
LLC ways: 16
Off-chip DRAM Size: 4096 MB Channels: 1 Width: 64-bit Data Rate: 3200 MT/s

CPU 0 runs /home/xubinfang/Desktop/ChampSim/dpc3_traces/client_004.champsimtrace.xz
CPU 0 Bimodal branch predictor
CPU 0 EPI prefetcher
CPU 0 L1D next line prefetcher
Heartbeat CPU 0 instructions: 10000000 cycles: 3592394 heartbeat IPC: 2.78366 cumulative IPC: 2.78366 (Simulation time: 0 hr 0 min 27 sec) 
Heartbeat CPU 0 instructions: 20000003 cycles: 7056897 heartbeat IPC: 2.88642 cumulative IPC: 2.83411 (Simulation time: 0 hr 0 min 53 sec) 
Heartbeat CPU 0 instructions: 30000000 cycles: 10647657 heartbeat IPC: 2.78492 cumulative IPC: 2.81752 (Simulation time: 0 hr 1 min 19 sec) 
Heartbeat CPU 0 instructions: 40000003 cycles: 14328414 heartbeat IPC: 2.71683 cumulative IPC: 2.79166 (Simulation time: 0 hr 1 min 45 sec) 
Heartbeat CPU 0 instructions: 50000001 cycles: 17846501 heartbeat IPC: 2.84245 cumulative IPC: 2.80167 (Simulation time: 0 hr 2 min 12 sec) 

Warmup complete CPU 0 instructions: 50000001 cycles: 17846501 (Simulation time: 0 hr 2 min 12 sec) 

Heartbeat CPU 0 instructions: 60000002 cycles: 26552771 heartbeat IPC: 1.1486 cumulative IPC: 1.1486 (Simulation time: 0 hr 2 min 37 sec) 
Heartbeat CPU 0 instructions: 70000001 cycles: 35212612 heartbeat IPC: 1.15476 cumulative IPC: 1.15167 (Simulation time: 0 hr 3 min 3 sec) 
Heartbeat CPU 0 instructions: 80000000 cycles: 44965328 heartbeat IPC: 1.02536 cumulative IPC: 1.10624 (Simulation time: 0 hr 3 min 30 sec) 
Heartbeat CPU 0 instructions: 90000000 cycles: 53904237 heartbeat IPC: 1.1187 cumulative IPC: 1.10933 (Simulation time: 0 hr 3 min 56 sec) 
Heartbeat CPU 0 instructions: 100000001 cycles: 62510194 heartbeat IPC: 1.16199 cumulative IPC: 1.11948 (Simulation time: 0 hr 4 min 20 sec) 
Finished CPU 0 instructions: 50000000 cycles: 44663693 cumulative IPC: 1.11948 (Simulation time: 0 hr 4 min 20 sec) 

ChampSim completed all CPUs

Region of Interest Statistics

CPU 0 cumulative IPC: 1.11948 instructions: 50000000 cycles: 44663693
L1D TOTAL     ACCESS:   22564670  HIT:   21675544  MISS:     889126
L1D LOAD      ACCESS:    9009382  HIT:    8614937  MISS:     394445
L1D RFO       ACCESS:    4837072  HIT:    4715818  MISS:     121254
L1D PREFETCH  ACCESS:    8718216  HIT:    8344789  MISS:     373427
L1D WRITEBACK ACCESS:          0  HIT:          0  MISS:          0
L1D PREFETCH  REQUESTED:    9049316  ISSUED:    8889554  USEFUL:     134764  USELESS:     238671
L1D AVERAGE MISS LATENCY: 28.9664 cycles
L1I TOTAL     ACCESS:   24537389  HIT:   23846847  MISS:     690542
L1I LOAD      ACCESS:    9399447  HIT:    9178231  MISS:     221216
L1I RFO       ACCESS:          0  HIT:          0  MISS:          0
L1I PREFETCH  ACCESS:   15137942  HIT:   14668616  MISS:     469326
L1I WRITEBACK ACCESS:          0  HIT:          0  MISS:          0
L1I PREFETCH  REQUESTED:   17662927  ISSUED:   17662927  USEFUL:     344239  USELESS:     125032
L1I AVERAGE MISS LATENCY: 24.1395 cycles
L2C TOTAL     ACCESS:    2405167  HIT:    2133895  MISS:     271272
L2C LOAD      ACCESS:     575425  HIT:     437306  MISS:     138119
L2C RFO       ACCESS:     117613  HIT:      47126  MISS:      70487
L2C PREFETCH  ACCESS:    1490087  HIT:    1427936  MISS:      62151
L2C WRITEBACK ACCESS:     222042  HIT:     221527  MISS:        515
L2C PREFETCH  REQUESTED:    1474143  ISSUED:    1474022  USEFUL:      17259  USELESS:      44280
L2C AVERAGE MISS LATENCY: 74.2751 cycles
LLC TOTAL     ACCESS:     681061  HIT:     556381  MISS:     124680
LLC LOAD      ACCESS:     138042  HIT:     105000  MISS:      33042
LLC RFO       ACCESS:      70486  HIT:      40652  MISS:      29834
LLC PREFETCH  ACCESS:     374402  HIT:     312831  MISS:      61571
LLC WRITEBACK ACCESS:      98131  HIT:      97898  MISS:        233
LLC PREFETCH  REQUESTED:          0  ISSUED:          0  USEFUL:      27691  USELESS:      36305
LLC AVERAGE MISS LATENCY: 162.723 cycles
Major fault: 0 Minor fault: 3976
CPU 0 L1I EPI prefetcher final stats
CPU 0 L1D next line prefetcher final stats

DRAM Statistics
 CHANNEL 0
 RQ ROW_BUFFER_HIT:      30003  ROW_BUFFER_MISS:      94435
 DBUS_CONGESTED:      52317
 WQ ROW_BUFFER_HIT:      10323  ROW_BUFFER_MISS:      31994  FULL:          0

 AVG_CONGESTED_CYCLE: 6

CPU 0 Branch Prediction Accuracy: 91.9561% MPKI: 15.8925 Average ROB Occupancy at Mispredict: 53.2126

Branch types
NOT_BRANCH: 40121069 80.2421%
BRANCH_DIRECT_JUMP: 644555 1.28911%
BRANCH_INDIRECT: 201946 0.403892%
BRANCH_CONDITIONAL: 7003556 14.0071%
BRANCH_DIRECT_CALL: 564821 1.12964%
BRANCH_INDIRECT_CALL: 445012 0.890024%
BRANCH_RETURN: 1018716 2.03743%
BRANCH_OTHER: 0 0%

