Initialize SIGNATURE TABLE
ST_SET: 1
ST_WAY: 256
ST_TAG_BIT: 16
ST_TAG_MASK: ffff

Initialize PATTERN TABLE
PT_SET: 512
PT_WAY: 4
SIG_DELTA_BIT: 7
C_SIG_BIT: 4
C_DELTA_BIT: 4

Initialize PREFETCH FILTER
FILTER_SET: 1024

*** ChampSim Multicore Out-of-Order Simulator ***

Warmup Instructions: 50000000
Simulation Instructions: 50000000
Number of CPUs: 1
LLC sets: 2048
LLC ways: 16
Off-chip DRAM Size: 4096 MB Channels: 1 Width: 64-bit Data Rate: 3200 MT/s

CPU 0 runs /home/xubinfang/Desktop/ChampSim/dpc3_traces/server_020.champsimtrace.xz
CPU 0 Bimodal branch predictor
CPU 0 EPI prefetcher
CPU 0 L1D next line prefetcher
Heartbeat CPU 0 instructions: 10000003 cycles: 3621522 heartbeat IPC: 2.76127 cumulative IPC: 2.76127 (Simulation time: 0 hr 0 min 28 sec) 
Heartbeat CPU 0 instructions: 20000002 cycles: 7247205 heartbeat IPC: 2.7581 cumulative IPC: 2.75968 (Simulation time: 0 hr 0 min 56 sec) 
Heartbeat CPU 0 instructions: 30000001 cycles: 10865756 heartbeat IPC: 2.76354 cumulative IPC: 2.76097 (Simulation time: 0 hr 1 min 28 sec) 
Heartbeat CPU 0 instructions: 40000002 cycles: 14485400 heartbeat IPC: 2.7627 cumulative IPC: 2.7614 (Simulation time: 0 hr 1 min 56 sec) 
Heartbeat CPU 0 instructions: 50000001 cycles: 18118384 heartbeat IPC: 2.75256 cumulative IPC: 2.75963 (Simulation time: 0 hr 2 min 25 sec) 

Warmup complete CPU 0 instructions: 50000001 cycles: 18118384 (Simulation time: 0 hr 2 min 25 sec) 

Heartbeat CPU 0 instructions: 60000000 cycles: 36264406 heartbeat IPC: 0.551085 cumulative IPC: 0.551085 (Simulation time: 0 hr 3 min 3 sec) 
Heartbeat CPU 0 instructions: 70000002 cycles: 54345518 heartbeat IPC: 0.553063 cumulative IPC: 0.552072 (Simulation time: 0 hr 3 min 37 sec) 
Heartbeat CPU 0 instructions: 80000002 cycles: 72202749 heartbeat IPC: 0.559997 cumulative IPC: 0.554689 (Simulation time: 0 hr 4 min 11 sec) 
Heartbeat CPU 0 instructions: 90000001 cycles: 90114814 heartbeat IPC: 0.558283 cumulative IPC: 0.555583 (Simulation time: 0 hr 4 min 51 sec) 
Heartbeat CPU 0 instructions: 100000002 cycles: 108084075 heartbeat IPC: 0.556506 cumulative IPC: 0.555767 (Simulation time: 0 hr 5 min 27 sec) 
Finished CPU 0 instructions: 50000001 cycles: 89965691 cumulative IPC: 0.555767 (Simulation time: 0 hr 5 min 27 sec) 

ChampSim completed all CPUs

Region of Interest Statistics

CPU 0 cumulative IPC: 0.555767 instructions: 50000001 cycles: 89965691
L1D TOTAL     ACCESS:   19395366  HIT:   17191058  MISS:    2204308
L1D LOAD      ACCESS:    7404877  HIT:    6683516  MISS:     721361
L1D RFO       ACCESS:    5820349  HIT:    4874081  MISS:     946268
L1D PREFETCH  ACCESS:    6170140  HIT:    5633461  MISS:     536679
L1D WRITEBACK ACCESS:          0  HIT:          0  MISS:          0
L1D PREFETCH  REQUESTED:    7449569  ISSUED:    7283911  USEFUL:     197076  USELESS:     339522
L1D AVERAGE MISS LATENCY: 172.032 cycles
L1I TOTAL     ACCESS:   24190439  HIT:   21768149  MISS:    2422290
L1I LOAD      ACCESS:    9615895  HIT:    9541311  MISS:      74584
L1I RFO       ACCESS:          0  HIT:          0  MISS:          0
L1I PREFETCH  ACCESS:   14574544  HIT:   12226838  MISS:    2347706
L1I WRITEBACK ACCESS:          0  HIT:          0  MISS:          0
L1I PREFETCH  REQUESTED:   16263872  ISSUED:   16263872  USEFUL:    2244311  USELESS:     103397
L1I AVERAGE MISS LATENCY: 18.5239 cycles
L2C TOTAL     ACCESS:    6875300  HIT:    5022154  MISS:    1853146
L2C LOAD      ACCESS:     553567  HIT:     271933  MISS:     281634
L2C RFO       ACCESS:     945572  HIT:      20033  MISS:     925539
L2C PREFETCH  ACCESS:    4212615  HIT:    3568894  MISS:     643721
L2C WRITEBACK ACCESS:    1163546  HIT:    1161294  MISS:       2252
L2C PREFETCH  REQUESTED:    3920148  ISSUED:    3914664  USEFUL:      25813  USELESS:     616911
L2C AVERAGE MISS LATENCY: 209.432 cycles
LLC TOTAL     ACCESS:    4005383  HIT:    2567029  MISS:    1438354
LLC LOAD      ACCESS:     281518  HIT:     178816  MISS:     102702
LLC RFO       ACCESS:     925509  HIT:     138529  MISS:     786980
LLC PREFETCH  ACCESS:    1700815  HIT:    1154141  MISS:     546674
LLC WRITEBACK ACCESS:    1097541  HIT:    1095543  MISS:       1998
LLC PREFETCH  REQUESTED:          0  ISSUED:          0  USEFUL:      33006  USELESS:     514002
LLC AVERAGE MISS LATENCY: 271.209 cycles
Major fault: 0 Minor fault: 22091
CPU 0 L1I EPI prefetcher final stats
CPU 0 L1D next line prefetcher final stats

DRAM Statistics
 CHANNEL 0
 RQ ROW_BUFFER_HIT:     410219  ROW_BUFFER_MISS:    1025908
 DBUS_CONGESTED:    1414235
 WQ ROW_BUFFER_HIT:     261109  ROW_BUFFER_MISS:     627528  FULL:          0

 AVG_CONGESTED_CYCLE: 6

CPU 0 Branch Prediction Accuracy: 96.3206% MPKI: 6.08594 Average ROB Occupancy at Mispredict: 99.2571

Branch types
NOT_BRANCH: 41729407 83.4588%
BRANCH_DIRECT_JUMP: 458219 0.916438%
BRANCH_INDIRECT: 49088 0.098176%
BRANCH_CONDITIONAL: 5938517 11.877%
BRANCH_DIRECT_CALL: 745129 1.49026%
BRANCH_INDIRECT_CALL: 167106 0.334212%
BRANCH_RETURN: 912219 1.82444%
BRANCH_OTHER: 0 0%

