Initialize SIGNATURE TABLE
ST_SET: 1
ST_WAY: 256
ST_TAG_BIT: 16
ST_TAG_MASK: ffff

Initialize PATTERN TABLE
PT_SET: 512
PT_WAY: 4
SIG_DELTA_BIT: 7
C_SIG_BIT: 4
C_DELTA_BIT: 4

Initialize PREFETCH FILTER
FILTER_SET: 1024

*** ChampSim Multicore Out-of-Order Simulator ***

Warmup Instructions: 50000000
Simulation Instructions: 50000000
Number of CPUs: 1
LLC sets: 2048
LLC ways: 16
Off-chip DRAM Size: 4096 MB Channels: 1 Width: 64-bit Data Rate: 3200 MT/s

CPU 0 runs /home/xubinfang/Desktop/ChampSim/dpc3_traces/server_033.champsimtrace.xz
CPU 0 Bimodal branch predictor
CPU 0 EPI prefetcher
CPU 0 L1D next line prefetcher
Heartbeat CPU 0 instructions: 10000001 cycles: 3344428 heartbeat IPC: 2.99005 cumulative IPC: 2.99005 (Simulation time: 0 hr 0 min 30 sec) 
Heartbeat CPU 0 instructions: 20000002 cycles: 6686778 heartbeat IPC: 2.99191 cumulative IPC: 2.99098 (Simulation time: 0 hr 1 min 1 sec) 
Heartbeat CPU 0 instructions: 30000001 cycles: 10019334 heartbeat IPC: 3.0007 cumulative IPC: 2.99421 (Simulation time: 0 hr 1 min 35 sec) 
Heartbeat CPU 0 instructions: 40000000 cycles: 13360932 heartbeat IPC: 2.99258 cumulative IPC: 2.9938 (Simulation time: 0 hr 2 min 7 sec) 
Heartbeat CPU 0 instructions: 50000000 cycles: 16701669 heartbeat IPC: 2.99335 cumulative IPC: 2.99371 (Simulation time: 0 hr 2 min 39 sec) 

Warmup complete CPU 0 instructions: 50000004 cycles: 16701670 (Simulation time: 0 hr 2 min 39 sec) 

Heartbeat CPU 0 instructions: 60000000 cycles: 25395828 heartbeat IPC: 1.1502 cumulative IPC: 1.1502 (Simulation time: 0 hr 3 min 9 sec) 
Heartbeat CPU 0 instructions: 70000000 cycles: 33996253 heartbeat IPC: 1.16273 cumulative IPC: 1.15643 (Simulation time: 0 hr 3 min 40 sec) 
Heartbeat CPU 0 instructions: 80000000 cycles: 43398580 heartbeat IPC: 1.06357 cumulative IPC: 1.12373 (Simulation time: 0 hr 4 min 8 sec) 
Heartbeat CPU 0 instructions: 90000001 cycles: 52056208 heartbeat IPC: 1.15505 cumulative IPC: 1.1314 (Simulation time: 0 hr 4 min 38 sec) 
Heartbeat CPU 0 instructions: 100000000 cycles: 60696289 heartbeat IPC: 1.1574 cumulative IPC: 1.1365 (Simulation time: 0 hr 5 min 6 sec) 
Finished CPU 0 instructions: 50000000 cycles: 43994626 cumulative IPC: 1.1365 (Simulation time: 0 hr 5 min 6 sec) 

ChampSim completed all CPUs

Region of Interest Statistics

CPU 0 cumulative IPC: 1.1365 instructions: 50000000 cycles: 43994626
L1D TOTAL     ACCESS:   20229812  HIT:   18746555  MISS:    1483257
L1D LOAD      ACCESS:    7102762  HIT:    6426881  MISS:     675881
L1D RFO       ACCESS:    6209176  HIT:    6057807  MISS:     151369
L1D PREFETCH  ACCESS:    6917874  HIT:    6261867  MISS:     656007
L1D WRITEBACK ACCESS:          0  HIT:          0  MISS:          0
L1D PREFETCH  REQUESTED:    7147243  ISSUED:    7043692  USEFUL:     146929  USELESS:     509084
L1D AVERAGE MISS LATENCY: 23.5391 cycles
L1I TOTAL     ACCESS:   21584917  HIT:   17966823  MISS:    3618094
L1I LOAD      ACCESS:    9593517  HIT:    8579395  MISS:    1014122
L1I RFO       ACCESS:          0  HIT:          0  MISS:          0
L1I PREFETCH  ACCESS:   11991400  HIT:    9387428  MISS:    2603972
L1I WRITEBACK ACCESS:          0  HIT:          0  MISS:          0
L1I PREFETCH  REQUESTED:   13334658  ISSUED:   13334658  USEFUL:    2314982  USELESS:     288956
L1I AVERAGE MISS LATENCY: 14.7714 cycles
L2C TOTAL     ACCESS:    7536449  HIT:    7254854  MISS:     281595
L2C LOAD      ACCESS:    1578155  HIT:    1449690  MISS:     128465
L2C RFO       ACCESS:     151148  HIT:     130860  MISS:      20288
L2C PREFETCH  ACCESS:    5440173  HIT:    5308549  MISS:     131624
L2C WRITEBACK ACCESS:     366973  HIT:     365755  MISS:       1218
L2C PREFETCH  REQUESTED:    6010094  ISSUED:    5998988  USEFUL:      11138  USELESS:     120095
L2C AVERAGE MISS LATENCY: 51.0466 cycles
LLC TOTAL     ACCESS:    2174673  HIT:    2104438  MISS:      70235
LLC LOAD      ACCESS:     128403  HIT:     112895  MISS:      15508
LLC RFO       ACCESS:      20288  HIT:      17301  MISS:       2987
LLC PREFETCH  ACCESS:    1922896  HIT:    1871498  MISS:      51398
LLC WRITEBACK ACCESS:     103086  HIT:     102744  MISS:        342
LLC PREFETCH  REQUESTED:          0  ISSUED:          0  USEFUL:       8533  USELESS:      42138
LLC AVERAGE MISS LATENCY: 168.558 cycles
Major fault: 0 Minor fault: 2482
CPU 0 L1I EPI prefetcher final stats
CPU 0 L1D next line prefetcher final stats

DRAM Statistics
 CHANNEL 0
 RQ ROW_BUFFER_HIT:      10515  ROW_BUFFER_MISS:      59373
 DBUS_CONGESTED:      27257
 WQ ROW_BUFFER_HIT:       3648  ROW_BUFFER_MISS:      18219  FULL:          0

 AVG_CONGESTED_CYCLE: 5

CPU 0 Branch Prediction Accuracy: 93.3376% MPKI: 13.035 Average ROB Occupancy at Mispredict: 46.9908

Branch types
NOT_BRANCH: 40217087 80.4342%
BRANCH_DIRECT_JUMP: 774599 1.5492%
BRANCH_INDIRECT: 108806 0.217612%
BRANCH_CONDITIONAL: 6379327 12.7587%
BRANCH_DIRECT_CALL: 1048808 2.09762%
BRANCH_INDIRECT_CALL: 211109 0.422218%
BRANCH_RETURN: 1259924 2.51985%
BRANCH_OTHER: 0 0%

