Initialize SIGNATURE TABLE
ST_SET: 1
ST_WAY: 256
ST_TAG_BIT: 16
ST_TAG_MASK: ffff

Initialize PATTERN TABLE
PT_SET: 512
PT_WAY: 4
SIG_DELTA_BIT: 7
C_SIG_BIT: 4
C_DELTA_BIT: 4

Initialize PREFETCH FILTER
FILTER_SET: 1024

*** ChampSim Multicore Out-of-Order Simulator ***

Warmup Instructions: 50000000
Simulation Instructions: 50000000
Number of CPUs: 1
LLC sets: 2048
LLC ways: 16
Off-chip DRAM Size: 4096 MB Channels: 1 Width: 64-bit Data Rate: 3200 MT/s

CPU 0 runs /home/xubinfang/Desktop/ChampSim/dpc3_traces/server_014.champsimtrace.xz
CPU 0 Bimodal branch predictor
CPU 0 EPI prefetcher
CPU 0 L1D next line prefetcher
Heartbeat CPU 0 instructions: 10000003 cycles: 3519554 heartbeat IPC: 2.84127 cumulative IPC: 2.84127 (Simulation time: 0 hr 0 min 31 sec) 
Heartbeat CPU 0 instructions: 20000000 cycles: 7106330 heartbeat IPC: 2.78802 cumulative IPC: 2.81439 (Simulation time: 0 hr 1 min 3 sec) 
Heartbeat CPU 0 instructions: 30000001 cycles: 10647872 heartbeat IPC: 2.82363 cumulative IPC: 2.81746 (Simulation time: 0 hr 1 min 36 sec) 
Heartbeat CPU 0 instructions: 40000003 cycles: 14196095 heartbeat IPC: 2.81831 cumulative IPC: 2.81768 (Simulation time: 0 hr 2 min 10 sec) 
Heartbeat CPU 0 instructions: 50000000 cycles: 17744769 heartbeat IPC: 2.81795 cumulative IPC: 2.81773 (Simulation time: 0 hr 2 min 42 sec) 

Warmup complete CPU 0 instructions: 50000001 cycles: 17744770 (Simulation time: 0 hr 2 min 42 sec) 

Heartbeat CPU 0 instructions: 60000000 cycles: 24339273 heartbeat IPC: 1.51641 cumulative IPC: 1.51641 (Simulation time: 0 hr 3 min 11 sec) 
Heartbeat CPU 0 instructions: 70000003 cycles: 30940520 heartbeat IPC: 1.51487 cumulative IPC: 1.51564 (Simulation time: 0 hr 3 min 45 sec) 
*** Reached end of trace for Core: 0 Repeating trace: /home/xubinfang/Desktop/ChampSim/dpc3_traces/server_014.champsimtrace.xz
Heartbeat CPU 0 instructions: 80000001 cycles: 37997839 heartbeat IPC: 1.41697 cumulative IPC: 1.48126 (Simulation time: 0 hr 4 min 16 sec) 
Heartbeat CPU 0 instructions: 90000003 cycles: 46088613 heartbeat IPC: 1.23598 cumulative IPC: 1.41124 (Simulation time: 0 hr 4 min 43 sec) 
Heartbeat CPU 0 instructions: 100000001 cycles: 52880799 heartbeat IPC: 1.47228 cumulative IPC: 1.42304 (Simulation time: 0 hr 5 min 8 sec) 
Finished CPU 0 instructions: 50000000 cycles: 35136029 cumulative IPC: 1.42304 (Simulation time: 0 hr 5 min 8 sec) 

ChampSim completed all CPUs

Region of Interest Statistics

CPU 0 cumulative IPC: 1.42304 instructions: 50000000 cycles: 35136029
L1D TOTAL     ACCESS:   22226422  HIT:   22155553  MISS:      70869
L1D LOAD      ACCESS:    6963608  HIT:    6936740  MISS:      26868
L1D RFO       ACCESS:    8423262  HIT:    8391172  MISS:      32090
L1D PREFETCH  ACCESS:    6839552  HIT:    6827641  MISS:      11911
L1D WRITEBACK ACCESS:          0  HIT:          0  MISS:          0
L1D PREFETCH  REQUESTED:    6968117  ISSUED:    6868876  USEFUL:       3357  USELESS:       8555
L1D AVERAGE MISS LATENCY: 223.666 cycles
L1I TOTAL     ACCESS:   35962635  HIT:   33654843  MISS:    2307792
L1I LOAD      ACCESS:    9145714  HIT:    9077817  MISS:      67897
L1I RFO       ACCESS:          0  HIT:          0  MISS:          0
L1I PREFETCH  ACCESS:   26816921  HIT:   24577026  MISS:    2239895
L1I WRITEBACK ACCESS:          0  HIT:          0  MISS:          0
L1I PREFETCH  REQUESTED:   31649119  ISSUED:   31649119  USEFUL:    1791512  USELESS:     448447
L1I AVERAGE MISS LATENCY: 14.7446 cycles
L2C TOTAL     ACCESS:    3326849  HIT:    3256205  MISS:      70644
L2C LOAD      ACCESS:      62168  HIT:      36817  MISS:      25351
L2C RFO       ACCESS:      32041  HIT:       1107  MISS:      30934
L2C PREFETCH  ACCESS:    3194273  HIT:    3179940  MISS:      14333
L2C WRITEBACK ACCESS:      38367  HIT:      38341  MISS:         26
L2C PREFETCH  REQUESTED:    1900814  ISSUED:    1900781  USEFUL:       1257  USELESS:      13767
L2C AVERAGE MISS LATENCY: 245.745 cycles
LLC TOTAL     ACCESS:     404789  HIT:     339619  MISS:      65170
LLC LOAD      ACCESS:      24101  HIT:       8351  MISS:      15750
LLC RFO       ACCESS:      30934  HIT:       4450  MISS:      26484
LLC PREFETCH  ACCESS:     315146  HIT:     292329  MISS:      22817
LLC WRITEBACK ACCESS:      34608  HIT:      34489  MISS:        119
LLC PREFETCH  REQUESTED:          0  ISSUED:          0  USEFUL:       5935  USELESS:      19810
LLC AVERAGE MISS LATENCY: 283.886 cycles
Major fault: 0 Minor fault: 1911
CPU 0 L1I EPI prefetcher final stats
CPU 0 L1D next line prefetcher final stats

DRAM Statistics
 CHANNEL 0
 RQ ROW_BUFFER_HIT:      27781  ROW_BUFFER_MISS:      37267
 DBUS_CONGESTED:      65259
 WQ ROW_BUFFER_HIT:       9432  ROW_BUFFER_MISS:      22714  FULL:          0

 AVG_CONGESTED_CYCLE: 6

CPU 0 Branch Prediction Accuracy: 97.2174% MPKI: 4.73642 Average ROB Occupancy at Mispredict: 93.1846

Branch types
NOT_BRANCH: 41488808 82.9776%
BRANCH_DIRECT_JUMP: 449415 0.89883%
BRANCH_INDIRECT: 2330 0.00466%
BRANCH_CONDITIONAL: 5470001 10.94%
BRANCH_DIRECT_CALL: 1172177 2.34435%
BRANCH_INDIRECT_CALL: 122383 0.244766%
BRANCH_RETURN: 1294544 2.58909%
BRANCH_OTHER: 0 0%

