Initialize SIGNATURE TABLE
ST_SET: 1
ST_WAY: 256
ST_TAG_BIT: 16
ST_TAG_MASK: ffff

Initialize PATTERN TABLE
PT_SET: 512
PT_WAY: 4
SIG_DELTA_BIT: 7
C_SIG_BIT: 4
C_DELTA_BIT: 4

Initialize PREFETCH FILTER
FILTER_SET: 1024

*** ChampSim Multicore Out-of-Order Simulator ***

Warmup Instructions: 50000000
Simulation Instructions: 50000000
Number of CPUs: 1
LLC sets: 2048
LLC ways: 16
Off-chip DRAM Size: 4096 MB Channels: 1 Width: 64-bit Data Rate: 3200 MT/s

CPU 0 runs /home/xubinfang/Desktop/ChampSim/dpc3_traces/server_017.champsimtrace.xz
CPU 0 Bimodal branch predictor
CPU 0 EPI prefetcher
CPU 0 L1D next line prefetcher
Heartbeat CPU 0 instructions: 10000001 cycles: 3622594 heartbeat IPC: 2.76045 cumulative IPC: 2.76045 (Simulation time: 0 hr 0 min 30 sec) 
Heartbeat CPU 0 instructions: 20000000 cycles: 7243598 heartbeat IPC: 2.76166 cumulative IPC: 2.76106 (Simulation time: 0 hr 0 min 57 sec) 
Heartbeat CPU 0 instructions: 30000002 cycles: 10870919 heartbeat IPC: 2.75686 cumulative IPC: 2.75966 (Simulation time: 0 hr 1 min 27 sec) 
Heartbeat CPU 0 instructions: 40000000 cycles: 14493253 heartbeat IPC: 2.76065 cumulative IPC: 2.7599 (Simulation time: 0 hr 1 min 57 sec) 
Heartbeat CPU 0 instructions: 50000001 cycles: 18127268 heartbeat IPC: 2.75178 cumulative IPC: 2.75828 (Simulation time: 0 hr 2 min 25 sec) 

Warmup complete CPU 0 instructions: 50000001 cycles: 18127268 (Simulation time: 0 hr 2 min 25 sec) 

Heartbeat CPU 0 instructions: 60000002 cycles: 36141622 heartbeat IPC: 0.555113 cumulative IPC: 0.555113 (Simulation time: 0 hr 3 min 0 sec) 
Heartbeat CPU 0 instructions: 70000000 cycles: 54269682 heartbeat IPC: 0.551631 cumulative IPC: 0.553366 (Simulation time: 0 hr 3 min 35 sec) 
Heartbeat CPU 0 instructions: 80000000 cycles: 72247657 heartbeat IPC: 0.556236 cumulative IPC: 0.55432 (Simulation time: 0 hr 4 min 10 sec) 
Heartbeat CPU 0 instructions: 90000002 cycles: 95689662 heartbeat IPC: 0.426585 cumulative IPC: 0.515714 (Simulation time: 0 hr 4 min 44 sec) 
Heartbeat CPU 0 instructions: 100000003 cycles: 116146803 heartbeat IPC: 0.488827 cumulative IPC: 0.510102 (Simulation time: 0 hr 5 min 21 sec) 
Finished CPU 0 instructions: 50000002 cycles: 98019535 cumulative IPC: 0.510102 (Simulation time: 0 hr 5 min 21 sec) 

ChampSim completed all CPUs

Region of Interest Statistics

CPU 0 cumulative IPC: 0.510102 instructions: 50000002 cycles: 98019535
L1D TOTAL     ACCESS:   19090327  HIT:   16924672  MISS:    2165655
L1D LOAD      ACCESS:    7359879  HIT:    6614576  MISS:     745303
L1D RFO       ACCESS:    5524456  HIT:    4664942  MISS:     859514
L1D PREFETCH  ACCESS:    6205992  HIT:    5645154  MISS:     560838
L1D WRITEBACK ACCESS:          0  HIT:          0  MISS:          0
L1D PREFETCH  REQUESTED:    7401166  ISSUED:    7244244  USEFUL:     198138  USELESS:     362762
L1D AVERAGE MISS LATENCY: 171.507 cycles
L1I TOTAL     ACCESS:   24252538  HIT:   22070227  MISS:    2182311
L1I LOAD      ACCESS:    9436113  HIT:    9361296  MISS:      74817
L1I RFO       ACCESS:          0  HIT:          0  MISS:          0
L1I PREFETCH  ACCESS:   14816425  HIT:   12708931  MISS:    2107494
L1I WRITEBACK ACCESS:          0  HIT:          0  MISS:          0
L1I PREFETCH  REQUESTED:   16249109  ISSUED:   16249109  USEFUL:    2010340  USELESS:      97179
L1I AVERAGE MISS LATENCY: 18.6934 cycles
L2C TOTAL     ACCESS:    6496115  HIT:    4653139  MISS:    1842976
L2C LOAD      ACCESS:     600029  HIT:     257077  MISS:     342952
L2C RFO       ACCESS:     858758  HIT:      17841  MISS:     840917
L2C PREFETCH  ACCESS:    3914465  HIT:    3257424  MISS:     657041
L2C WRITEBACK ACCESS:    1122863  HIT:    1120797  MISS:       2066
L2C PREFETCH  REQUESTED:    3864380  ISSUED:    3857897  USEFUL:      25323  USELESS:     632316
L2C AVERAGE MISS LATENCY: 204.839 cycles
LLC TOTAL     ACCESS:    4048896  HIT:    2525271  MISS:    1523625
LLC LOAD      ACCESS:     342840  HIT:     183800  MISS:     159040
LLC RFO       ACCESS:     840893  HIT:     122592  MISS:     718301
LLC PREFETCH  ACCESS:    1804274  HIT:    1160057  MISS:     644217
LLC WRITEBACK ACCESS:    1060889  HIT:    1058822  MISS:       2067
LLC PREFETCH  REQUESTED:          0  ISSUED:          0  USEFUL:      51996  USELESS:     592674
LLC AVERAGE MISS LATENCY: 257.793 cycles
Major fault: 0 Minor fault: 24694
CPU 0 L1I EPI prefetcher final stats
CPU 0 L1D next line prefetcher final stats

DRAM Statistics
 CHANNEL 0
 RQ ROW_BUFFER_HIT:     379036  ROW_BUFFER_MISS:    1142360
 DBUS_CONGESTED:    1448713
 WQ ROW_BUFFER_HIT:     253692  ROW_BUFFER_MISS:     622958  FULL:          0

 AVG_CONGESTED_CYCLE: 6

CPU 0 Branch Prediction Accuracy: 95.5743% MPKI: 7.4454 Average ROB Occupancy at Mispredict: 99.2326

Branch types
NOT_BRANCH: 41588239 83.1765%
BRANCH_DIRECT_JUMP: 464500 0.929%
BRANCH_INDIRECT: 45704 0.091408%
BRANCH_CONDITIONAL: 6147387 12.2948%
BRANCH_DIRECT_CALL: 675448 1.3509%
BRANCH_INDIRECT_CALL: 201532 0.403064%
BRANCH_RETURN: 876983 1.75397%
BRANCH_OTHER: 0 0%

