Initialize SIGNATURE TABLE
ST_SET: 1
ST_WAY: 256
ST_TAG_BIT: 16
ST_TAG_MASK: ffff

Initialize PATTERN TABLE
PT_SET: 512
PT_WAY: 4
SIG_DELTA_BIT: 7
C_SIG_BIT: 4
C_DELTA_BIT: 4

Initialize PREFETCH FILTER
FILTER_SET: 1024

*** ChampSim Multicore Out-of-Order Simulator ***

Warmup Instructions: 50000000
Simulation Instructions: 50000000
Number of CPUs: 1
LLC sets: 2048
LLC ways: 16
Off-chip DRAM Size: 4096 MB Channels: 1 Width: 64-bit Data Rate: 3200 MT/s

CPU 0 runs /home/xubinfang/Desktop/ChampSim/dpc3_traces/server_037.champsimtrace.xz
CPU 0 Bimodal branch predictor
CPU 0 EPI prefetcher
CPU 0 L1D next line prefetcher
Heartbeat CPU 0 instructions: 10000001 cycles: 3319406 heartbeat IPC: 3.01259 cumulative IPC: 3.01259 (Simulation time: 0 hr 0 min 30 sec) 
Heartbeat CPU 0 instructions: 20000002 cycles: 6636645 heartbeat IPC: 3.01456 cumulative IPC: 3.01357 (Simulation time: 0 hr 1 min 1 sec) 
Heartbeat CPU 0 instructions: 30000003 cycles: 10001218 heartbeat IPC: 2.97215 cumulative IPC: 2.99963 (Simulation time: 0 hr 1 min 31 sec) 
Heartbeat CPU 0 instructions: 40000000 cycles: 13319738 heartbeat IPC: 3.01339 cumulative IPC: 3.00306 (Simulation time: 0 hr 2 min 1 sec) 
Heartbeat CPU 0 instructions: 50000003 cycles: 16637679 heartbeat IPC: 3.01392 cumulative IPC: 3.00523 (Simulation time: 0 hr 2 min 30 sec) 

Warmup complete CPU 0 instructions: 50000003 cycles: 16637679 (Simulation time: 0 hr 2 min 30 sec) 

Heartbeat CPU 0 instructions: 60000001 cycles: 23753812 heartbeat IPC: 1.40526 cumulative IPC: 1.40526 (Simulation time: 0 hr 2 min 58 sec) 
Heartbeat CPU 0 instructions: 70000002 cycles: 30999460 heartbeat IPC: 1.38014 cumulative IPC: 1.39258 (Simulation time: 0 hr 3 min 26 sec) 
Heartbeat CPU 0 instructions: 80000000 cycles: 38111677 heartbeat IPC: 1.40603 cumulative IPC: 1.39704 (Simulation time: 0 hr 3 min 55 sec) 
Heartbeat CPU 0 instructions: 90000002 cycles: 45247081 heartbeat IPC: 1.40146 cumulative IPC: 1.39814 (Simulation time: 0 hr 4 min 24 sec) 
*** Reached end of trace for Core: 0 Repeating trace: /home/xubinfang/Desktop/ChampSim/dpc3_traces/server_037.champsimtrace.xz
Heartbeat CPU 0 instructions: 100000000 cycles: 52447763 heartbeat IPC: 1.38876 cumulative IPC: 1.39625 (Simulation time: 0 hr 4 min 53 sec) 
Finished CPU 0 instructions: 50000001 cycles: 35810085 cumulative IPC: 1.39625 (Simulation time: 0 hr 4 min 53 sec) 

ChampSim completed all CPUs

Region of Interest Statistics

CPU 0 cumulative IPC: 1.39625 instructions: 50000001 cycles: 35810085
L1D TOTAL     ACCESS:   19925131  HIT:   18945686  MISS:     979445
L1D LOAD      ACCESS:    6940671  HIT:    6449928  MISS:     490743
L1D RFO       ACCESS:    6220970  HIT:    6156095  MISS:      64875
L1D PREFETCH  ACCESS:    6763490  HIT:    6339663  MISS:     423827
L1D WRITEBACK ACCESS:          0  HIT:          0  MISS:          0
L1D PREFETCH  REQUESTED:    6981307  ISSUED:    6877859  USEFUL:     118072  USELESS:     305759
L1D AVERAGE MISS LATENCY: 28.8157 cycles
L1I TOTAL     ACCESS:   23873210  HIT:   19554131  MISS:    4319079
L1I LOAD      ACCESS:    9300669  HIT:    9061255  MISS:     239414
L1I RFO       ACCESS:          0  HIT:          0  MISS:          0
L1I PREFETCH  ACCESS:   14572541  HIT:   10492876  MISS:    4079665
L1I WRITEBACK ACCESS:          0  HIT:          0  MISS:          0
L1I PREFETCH  REQUESTED:   15912671  ISSUED:   15912671  USEFUL:    3821434  USELESS:     258238
L1I AVERAGE MISS LATENCY: 15.0027 cycles
L2C TOTAL     ACCESS:    8233078  HIT:    7927476  MISS:     305602
L2C LOAD      ACCESS:     694065  HIT:     555621  MISS:     138444
L2C RFO       ACCESS:      64630  HIT:      37335  MISS:      27295
L2C PREFETCH  ACCESS:    7184615  HIT:    7045596  MISS:     139019
L2C WRITEBACK ACCESS:     289768  HIT:     288924  MISS:        844
L2C PREFETCH  REQUESTED:    6925697  ISSUED:    6914128  USEFUL:       6630  USELESS:     132277
L2C AVERAGE MISS LATENCY: 46.1912 cycles
LLC TOTAL     ACCESS:    1508241  HIT:    1447568  MISS:      60673
LLC LOAD      ACCESS:     138419  HIT:     124943  MISS:      13476
LLC RFO       ACCESS:      27295  HIT:      21957  MISS:       5338
LLC PREFETCH  ACCESS:    1207273  HIT:    1166062  MISS:      41211
LLC WRITEBACK ACCESS:     135254  HIT:     134606  MISS:        648
LLC PREFETCH  REQUESTED:          0  ISSUED:          0  USEFUL:       3571  USELESS:      37797
LLC AVERAGE MISS LATENCY: 164.163 cycles
Major fault: 0 Minor fault: 5652
CPU 0 L1I EPI prefetcher final stats
CPU 0 L1D next line prefetcher final stats

DRAM Statistics
 CHANNEL 0
 RQ ROW_BUFFER_HIT:       9547  ROW_BUFFER_MISS:      50477
 DBUS_CONGESTED:      23475
 WQ ROW_BUFFER_HIT:       1320  ROW_BUFFER_MISS:      10944  FULL:          0

 AVG_CONGESTED_CYCLE: 5

CPU 0 Branch Prediction Accuracy: 96.3054% MPKI: 6.64902 Average ROB Occupancy at Mispredict: 80.2005

Branch types
NOT_BRANCH: 41001519 82.003%
BRANCH_DIRECT_JUMP: 541939 1.08388%
BRANCH_INDIRECT: 59716 0.119432%
BRANCH_CONDITIONAL: 5916837 11.8337%
BRANCH_DIRECT_CALL: 1005457 2.01091%
BRANCH_INDIRECT_CALL: 234433 0.468866%
BRANCH_RETURN: 1239865 2.47973%
BRANCH_OTHER: 0 0%

