Initialize SIGNATURE TABLE
ST_SET: 1
ST_WAY: 256
ST_TAG_BIT: 16
ST_TAG_MASK: ffff

Initialize PATTERN TABLE
PT_SET: 512
PT_WAY: 4
SIG_DELTA_BIT: 7
C_SIG_BIT: 4
C_DELTA_BIT: 4

Initialize PREFETCH FILTER
FILTER_SET: 1024

*** ChampSim Multicore Out-of-Order Simulator ***

Warmup Instructions: 50000000
Simulation Instructions: 50000000
Number of CPUs: 1
LLC sets: 2048
LLC ways: 16
Off-chip DRAM Size: 4096 MB Channels: 1 Width: 64-bit Data Rate: 3200 MT/s

CPU 0 runs /home/xubinfang/Desktop/ChampSim/dpc3_traces/server_013.champsimtrace.xz
CPU 0 Bimodal branch predictor
CPU 0 EPI prefetcher
CPU 0 L1D next line prefetcher
Heartbeat CPU 0 instructions: 10000000 cycles: 3214390 heartbeat IPC: 3.11101 cumulative IPC: 3.11101 (Simulation time: 0 hr 0 min 29 sec) 
Heartbeat CPU 0 instructions: 20000001 cycles: 6418274 heartbeat IPC: 3.12121 cumulative IPC: 3.1161 (Simulation time: 0 hr 1 min 0 sec) 
Heartbeat CPU 0 instructions: 30000002 cycles: 9625710 heartbeat IPC: 3.11776 cumulative IPC: 3.11665 (Simulation time: 0 hr 1 min 32 sec) 
Heartbeat CPU 0 instructions: 40000002 cycles: 12829317 heartbeat IPC: 3.12148 cumulative IPC: 3.11786 (Simulation time: 0 hr 2 min 1 sec) 
Heartbeat CPU 0 instructions: 50000000 cycles: 16032744 heartbeat IPC: 3.12166 cumulative IPC: 3.11862 (Simulation time: 0 hr 2 min 32 sec) 

Warmup complete CPU 0 instructions: 50000004 cycles: 16032745 (Simulation time: 0 hr 2 min 32 sec) 

Heartbeat CPU 0 instructions: 60000002 cycles: 28279591 heartbeat IPC: 0.816537 cumulative IPC: 0.816537 (Simulation time: 0 hr 3 min 0 sec) 
Heartbeat CPU 0 instructions: 70000000 cycles: 40720712 heartbeat IPC: 0.803786 cumulative IPC: 0.810111 (Simulation time: 0 hr 3 min 28 sec) 
Heartbeat CPU 0 instructions: 80000001 cycles: 52612270 heartbeat IPC: 0.840933 cumulative IPC: 0.820131 (Simulation time: 0 hr 3 min 53 sec) 
Heartbeat CPU 0 instructions: 90000003 cycles: 64668143 heartbeat IPC: 0.829471 cumulative IPC: 0.822446 (Simulation time: 0 hr 4 min 18 sec) 
Heartbeat CPU 0 instructions: 100000000 cycles: 76845164 heartbeat IPC: 0.821219 cumulative IPC: 0.8222 (Simulation time: 0 hr 4 min 45 sec) 
Finished CPU 0 instructions: 50000000 cycles: 60812420 cumulative IPC: 0.8222 (Simulation time: 0 hr 4 min 45 sec) 

ChampSim completed all CPUs

Region of Interest Statistics

CPU 0 cumulative IPC: 0.8222 instructions: 50000000 cycles: 60812420
L1D TOTAL     ACCESS:   18751731  HIT:   17683590  MISS:    1068141
L1D LOAD      ACCESS:    6995264  HIT:    6507884  MISS:     487380
L1D RFO       ACCESS:    4987274  HIT:    4906751  MISS:      80523
L1D PREFETCH  ACCESS:    6769193  HIT:    6268955  MISS:     500238
L1D WRITEBACK ACCESS:          0  HIT:          0  MISS:          0
L1D PREFETCH  REQUESTED:    7034715  ISSUED:    6928237  USEFUL:     147936  USELESS:     352311
L1D AVERAGE MISS LATENCY: 40.5146 cycles
L1I TOTAL     ACCESS:   19202695  HIT:   17632094  MISS:    1570601
L1I LOAD      ACCESS:    8621762  HIT:    7701119  MISS:     920643
L1I RFO       ACCESS:          0  HIT:          0  MISS:          0
L1I PREFETCH  ACCESS:   10580933  HIT:    9930975  MISS:     649958
L1I WRITEBACK ACCESS:          0  HIT:          0  MISS:          0
L1I PREFETCH  REQUESTED:   11622432  ISSUED:   11622432  USEFUL:     479278  USELESS:     170640
L1I AVERAGE MISS LATENCY: 29.5116 cycles
L2C TOTAL     ACCESS:    3698257  HIT:    2405838  MISS:    1292419
L2C LOAD      ACCESS:    1344043  HIT:     524293  MISS:     819750
L2C RFO       ACCESS:      79095  HIT:      31974  MISS:      47121
L2C PREFETCH  ACCESS:    1999201  HIT:    1574763  MISS:     424438
L2C WRITEBACK ACCESS:     275918  HIT:     274808  MISS:       1110
L2C PREFETCH  REQUESTED:    3971973  ISSUED:    3969989  USEFUL:      73033  USELESS:     351292
L2C AVERAGE MISS LATENCY: 41.2939 cycles
LLC TOTAL     ACCESS:    3241236  HIT:    3036391  MISS:     204845
LLC LOAD      ACCESS:     789884  HIT:     743449  MISS:      46435
LLC RFO       ACCESS:      47117  HIT:      36918  MISS:      10199
LLC PREFETCH  ACCESS:    2234077  HIT:    2086468  MISS:     147609
LLC WRITEBACK ACCESS:     170158  HIT:     169556  MISS:        602
LLC PREFETCH  REQUESTED:          0  ISSUED:          0  USEFUL:      30883  USELESS:     116176
LLC AVERAGE MISS LATENCY: 160.527 cycles
Major fault: 0 Minor fault: 6200
CPU 0 L1I EPI prefetcher final stats
CPU 0 L1D next line prefetcher final stats

DRAM Statistics
 CHANNEL 0
 RQ ROW_BUFFER_HIT:      36053  ROW_BUFFER_MISS:     168186
 DBUS_CONGESTED:      80226
 WQ ROW_BUFFER_HIT:      11515  ROW_BUFFER_MISS:      54905  FULL:          0

 AVG_CONGESTED_CYCLE: 5

CPU 0 Branch Prediction Accuracy: 92.974% MPKI: 13.0495 Average ROB Occupancy at Mispredict: 33.2391

Branch types
NOT_BRANCH: 40713049 81.4261%
BRANCH_DIRECT_JUMP: 463697 0.927394%
BRANCH_INDIRECT: 146542 0.293084%
BRANCH_CONDITIONAL: 6981921 13.9638%
BRANCH_DIRECT_CALL: 665003 1.33001%
BRANCH_INDIRECT_CALL: 165150 0.3303%
BRANCH_RETURN: 864309 1.72862%
BRANCH_OTHER: 0 0%

