Initialize SIGNATURE TABLE
ST_SET: 1
ST_WAY: 256
ST_TAG_BIT: 16
ST_TAG_MASK: ffff

Initialize PATTERN TABLE
PT_SET: 512
PT_WAY: 4
SIG_DELTA_BIT: 7
C_SIG_BIT: 4
C_DELTA_BIT: 4

Initialize PREFETCH FILTER
FILTER_SET: 1024

*** ChampSim Multicore Out-of-Order Simulator ***

Warmup Instructions: 50000000
Simulation Instructions: 50000000
Number of CPUs: 1
LLC sets: 2048
LLC ways: 16
Off-chip DRAM Size: 4096 MB Channels: 1 Width: 64-bit Data Rate: 3200 MT/s

CPU 0 runs /home/xubinfang/Desktop/ChampSim/dpc3_traces/server_034.champsimtrace.xz
CPU 0 Bimodal branch predictor
CPU 0 EPI prefetcher
CPU 0 L1D next line prefetcher
Heartbeat CPU 0 instructions: 10000000 cycles: 3332467 heartbeat IPC: 3.00078 cumulative IPC: 3.00078 (Simulation time: 0 hr 0 min 36 sec) 
Heartbeat CPU 0 instructions: 20000002 cycles: 6657386 heartbeat IPC: 3.00759 cumulative IPC: 3.00418 (Simulation time: 0 hr 1 min 9 sec) 
Heartbeat CPU 0 instructions: 30000003 cycles: 9991057 heartbeat IPC: 2.9997 cumulative IPC: 3.00269 (Simulation time: 0 hr 1 min 43 sec) 
Heartbeat CPU 0 instructions: 40000001 cycles: 13322332 heartbeat IPC: 3.00185 cumulative IPC: 3.00248 (Simulation time: 0 hr 2 min 18 sec) 
Heartbeat CPU 0 instructions: 50000000 cycles: 16653557 heartbeat IPC: 3.0019 cumulative IPC: 3.00236 (Simulation time: 0 hr 2 min 55 sec) 

Warmup complete CPU 0 instructions: 50000002 cycles: 16653558 (Simulation time: 0 hr 2 min 55 sec) 

Heartbeat CPU 0 instructions: 60000002 cycles: 24867396 heartbeat IPC: 1.21746 cumulative IPC: 1.21746 (Simulation time: 0 hr 3 min 21 sec) 
Heartbeat CPU 0 instructions: 70000003 cycles: 33486788 heartbeat IPC: 1.16017 cumulative IPC: 1.18813 (Simulation time: 0 hr 3 min 49 sec) 
Heartbeat CPU 0 instructions: 80000002 cycles: 41701970 heartbeat IPC: 1.21726 cumulative IPC: 1.19768 (Simulation time: 0 hr 4 min 14 sec) 
Heartbeat CPU 0 instructions: 90000002 cycles: 49903031 heartbeat IPC: 1.21935 cumulative IPC: 1.20303 (Simulation time: 0 hr 4 min 41 sec) 
Heartbeat CPU 0 instructions: 100000002 cycles: 58158236 heartbeat IPC: 1.21136 cumulative IPC: 1.20468 (Simulation time: 0 hr 5 min 7 sec) 
Finished CPU 0 instructions: 50000000 cycles: 41504678 cumulative IPC: 1.20468 (Simulation time: 0 hr 5 min 7 sec) 

ChampSim completed all CPUs

Region of Interest Statistics

CPU 0 cumulative IPC: 1.20468 instructions: 50000000 cycles: 41504678
L1D TOTAL     ACCESS:   20324255  HIT:   18899500  MISS:    1424755
L1D LOAD      ACCESS:    7128232  HIT:    6478499  MISS:     649733
L1D RFO       ACCESS:    6211558  HIT:    6067339  MISS:     144219
L1D PREFETCH  ACCESS:    6984465  HIT:    6353662  MISS:     630803
L1D WRITEBACK ACCESS:          0  HIT:          0  MISS:          0
L1D PREFETCH  REQUESTED:    7170057  ISSUED:    7102270  USEFUL:     145425  USELESS:     485346
L1D AVERAGE MISS LATENCY: 17.7907 cycles
L1I TOTAL     ACCESS:   21598950  HIT:   18028928  MISS:    3570022
L1I LOAD      ACCESS:    9614643  HIT:    8628302  MISS:     986341
L1I RFO       ACCESS:          0  HIT:          0  MISS:          0
L1I PREFETCH  ACCESS:   11984307  HIT:    9400626  MISS:    2583681
L1I WRITEBACK ACCESS:          0  HIT:          0  MISS:          0
L1I PREFETCH  REQUESTED:   13222257  ISSUED:   13222257  USEFUL:    2329739  USELESS:     253950
L1I AVERAGE MISS LATENCY: 14.7201 cycles
L2C TOTAL     ACCESS:    7269673  HIT:    7141729  MISS:     127944
L2C LOAD      ACCESS:    1529572  HIT:    1478331  MISS:      51241
L2C RFO       ACCESS:     143924  HIT:     135005  MISS:       8919
L2C PREFETCH  ACCESS:    5245070  HIT:    5177997  MISS:      67073
L2C WRITEBACK ACCESS:     351107  HIT:     350396  MISS:        711
L2C PREFETCH  REQUESTED:    5856080  ISSUED:    5841009  USEFUL:       4122  USELESS:      62521
L2C AVERAGE MISS LATENCY: 41.9553 cycles
LLC TOTAL     ACCESS:    2170592  HIT:    2151887  MISS:      18705
LLC LOAD      ACCESS:      50670  HIT:      46640  MISS:       4030
LLC RFO       ACCESS:       8919  HIT:       8473  MISS:        446
LLC PREFETCH  ACCESS:    2071051  HIT:    2057002  MISS:      14049
LLC WRITEBACK ACCESS:      39952  HIT:      39772  MISS:        180
LLC PREFETCH  REQUESTED:          0  ISSUED:          0  USEFUL:       3913  USELESS:       9579
LLC AVERAGE MISS LATENCY: 155.662 cycles
Major fault: 0 Minor fault: 1170
CPU 0 L1I EPI prefetcher final stats
CPU 0 L1D next line prefetcher final stats

DRAM Statistics
 CHANNEL 0
 RQ ROW_BUFFER_HIT:       4395  ROW_BUFFER_MISS:      14128
 DBUS_CONGESTED:       7817
 WQ ROW_BUFFER_HIT:       1552  ROW_BUFFER_MISS:       4254  FULL:          0

 AVG_CONGESTED_CYCLE: 5

CPU 0 Branch Prediction Accuracy: 93.2298% MPKI: 13.2408 Average ROB Occupancy at Mispredict: 42.715

Branch types
NOT_BRANCH: 40220844 80.4417%
BRANCH_DIRECT_JUMP: 771318 1.54264%
BRANCH_INDIRECT: 108662 0.217324%
BRANCH_CONDITIONAL: 6375020 12.75%
BRANCH_DIRECT_CALL: 1049630 2.09926%
BRANCH_INDIRECT_CALL: 212280 0.42456%
BRANCH_RETURN: 1261922 2.52384%
BRANCH_OTHER: 0 0%

