Initialize SIGNATURE TABLE
ST_SET: 1
ST_WAY: 256
ST_TAG_BIT: 16
ST_TAG_MASK: ffff

Initialize PATTERN TABLE
PT_SET: 512
PT_WAY: 4
SIG_DELTA_BIT: 7
C_SIG_BIT: 4
C_DELTA_BIT: 4

Initialize PREFETCH FILTER
FILTER_SET: 1024

*** ChampSim Multicore Out-of-Order Simulator ***

Warmup Instructions: 50000000
Simulation Instructions: 50000000
Number of CPUs: 1
LLC sets: 2048
LLC ways: 16
Off-chip DRAM Size: 4096 MB Channels: 1 Width: 64-bit Data Rate: 3200 MT/s

CPU 0 runs /home/xubinfang/Desktop/ChampSim/dpc3_traces/server_019.champsimtrace.xz
CPU 0 Bimodal branch predictor
CPU 0 EPI prefetcher
CPU 0 L1D next line prefetcher
Heartbeat CPU 0 instructions: 10000002 cycles: 3622985 heartbeat IPC: 2.76016 cumulative IPC: 2.76016 (Simulation time: 0 hr 0 min 29 sec) 
Heartbeat CPU 0 instructions: 20000003 cycles: 7247110 heartbeat IPC: 2.75929 cumulative IPC: 2.75972 (Simulation time: 0 hr 0 min 56 sec) 
Heartbeat CPU 0 instructions: 30000002 cycles: 10870081 heartbeat IPC: 2.76017 cumulative IPC: 2.75987 (Simulation time: 0 hr 1 min 24 sec) 
Heartbeat CPU 0 instructions: 40000002 cycles: 14505409 heartbeat IPC: 2.75078 cumulative IPC: 2.75759 (Simulation time: 0 hr 1 min 52 sec) 
Heartbeat CPU 0 instructions: 50000001 cycles: 18129118 heartbeat IPC: 2.7596 cumulative IPC: 2.75799 (Simulation time: 0 hr 2 min 20 sec) 

Warmup complete CPU 0 instructions: 50000001 cycles: 18129118 (Simulation time: 0 hr 2 min 20 sec) 

Heartbeat CPU 0 instructions: 60000000 cycles: 38391220 heartbeat IPC: 0.493532 cumulative IPC: 0.493532 (Simulation time: 0 hr 2 min 56 sec) 
Heartbeat CPU 0 instructions: 70000002 cycles: 62265098 heartbeat IPC: 0.418868 cumulative IPC: 0.453145 (Simulation time: 0 hr 3 min 34 sec) 
Heartbeat CPU 0 instructions: 80000001 cycles: 83162576 heartbeat IPC: 0.478527 cumulative IPC: 0.461301 (Simulation time: 0 hr 4 min 11 sec) 
Heartbeat CPU 0 instructions: 90000003 cycles: 101273848 heartbeat IPC: 0.552142 cumulative IPC: 0.481089 (Simulation time: 0 hr 4 min 49 sec) 
Heartbeat CPU 0 instructions: 100000002 cycles: 119406605 heartbeat IPC: 0.551488 cumulative IPC: 0.493693 (Simulation time: 0 hr 5 min 29 sec) 
Finished CPU 0 instructions: 50000001 cycles: 101277487 cumulative IPC: 0.493693 (Simulation time: 0 hr 5 min 29 sec) 

ChampSim completed all CPUs

Region of Interest Statistics

CPU 0 cumulative IPC: 0.493693 instructions: 50000001 cycles: 101277487
L1D TOTAL     ACCESS:   19021654  HIT:   16798594  MISS:    2223060
L1D LOAD      ACCESS:    7312596  HIT:    6559846  MISS:     752750
L1D RFO       ACCESS:    5522532  HIT:    4620269  MISS:     902263
L1D PREFETCH  ACCESS:    6186526  HIT:    5618479  MISS:     568047
L1D WRITEBACK ACCESS:          0  HIT:          0  MISS:          0
L1D PREFETCH  REQUESTED:    7353408  ISSUED:    7200826  USEFUL:     198597  USELESS:     369359
L1D AVERAGE MISS LATENCY: 182.694 cycles
L1I TOTAL     ACCESS:   23192039  HIT:   20990163  MISS:    2201876
L1I LOAD      ACCESS:    9438955  HIT:    9348447  MISS:      90508
L1I RFO       ACCESS:          0  HIT:          0  MISS:          0
L1I PREFETCH  ACCESS:   13753084  HIT:   11641716  MISS:    2111368
L1I WRITEBACK ACCESS:          0  HIT:          0  MISS:          0
L1I PREFETCH  REQUESTED:   14967846  ISSUED:   14967846  USEFUL:    2019276  USELESS:      92093
L1I AVERAGE MISS LATENCY: 19.0711 cycles
L2C TOTAL     ACCESS:    6610633  HIT:    4719830  MISS:    1890803
L2C LOAD      ACCESS:     624135  HIT:     272922  MISS:     351213
L2C RFO       ACCESS:     901565  HIT:      18468  MISS:     883097
L2C PREFETCH  ACCESS:    3910275  HIT:    3256144  MISS:     654131
L2C WRITEBACK ACCESS:    1174658  HIT:    1172296  MISS:       2362
L2C PREFETCH  REQUESTED:    3853726  ISSUED:    3848303  USEFUL:      26230  USELESS:     626594
L2C AVERAGE MISS LATENCY: 217.854 cycles
LLC TOTAL     ACCESS:    4137200  HIT:    2541961  MISS:    1595239
LLC LOAD      ACCESS:     351113  HIT:     183476  MISS:     167637
LLC RFO       ACCESS:     883092  HIT:     114944  MISS:     768148
LLC PREFETCH  ACCESS:    1792536  HIT:    1135172  MISS:     657364
LLC WRITEBACK ACCESS:    1110459  HIT:    1108369  MISS:       2090
LLC PREFETCH  REQUESTED:          0  ISSUED:          0  USEFUL:      54099  USELESS:     603094
LLC AVERAGE MISS LATENCY: 268.67 cycles
Major fault: 0 Minor fault: 25691
CPU 0 L1I EPI prefetcher final stats
CPU 0 L1D next line prefetcher final stats

DRAM Statistics
 CHANNEL 0
 RQ ROW_BUFFER_HIT:     395560  ROW_BUFFER_MISS:    1197346
 DBUS_CONGESTED:    1558218
 WQ ROW_BUFFER_HIT:     266941  ROW_BUFFER_MISS:     667478  FULL:          0

 AVG_CONGESTED_CYCLE: 6

CPU 0 Branch Prediction Accuracy: 95.5087% MPKI: 7.59838 Average ROB Occupancy at Mispredict: 99.2678

Branch types
NOT_BRANCH: 41540760 83.0815%
BRANCH_DIRECT_JUMP: 462382 0.924764%
BRANCH_INDIRECT: 45460 0.09092%
BRANCH_CONDITIONAL: 6209270 12.4185%
BRANCH_DIRECT_CALL: 666240 1.33248%
BRANCH_INDIRECT_CALL: 204728 0.409456%
BRANCH_RETURN: 870977 1.74195%
BRANCH_OTHER: 0 0%

