Initialize SIGNATURE TABLE
ST_SET: 1
ST_WAY: 256
ST_TAG_BIT: 16
ST_TAG_MASK: ffff

Initialize PATTERN TABLE
PT_SET: 512
PT_WAY: 4
SIG_DELTA_BIT: 7
C_SIG_BIT: 4
C_DELTA_BIT: 4

Initialize PREFETCH FILTER
FILTER_SET: 1024

*** ChampSim Multicore Out-of-Order Simulator ***

Warmup Instructions: 50000000
Simulation Instructions: 50000000
Number of CPUs: 1
LLC sets: 2048
LLC ways: 16
Off-chip DRAM Size: 4096 MB Channels: 1 Width: 64-bit Data Rate: 3200 MT/s

CPU 0 runs /home/xubinfang/Desktop/ChampSim/dpc3_traces/server_009.champsimtrace.xz
CPU 0 Bimodal branch predictor
CPU 0 EPI prefetcher
CPU 0 L1D next line prefetcher
Heartbeat CPU 0 instructions: 10000003 cycles: 3199576 heartbeat IPC: 3.12542 cumulative IPC: 3.12542 (Simulation time: 0 hr 0 min 29 sec) 
Heartbeat CPU 0 instructions: 20000001 cycles: 6392758 heartbeat IPC: 3.13167 cumulative IPC: 3.12854 (Simulation time: 0 hr 0 min 59 sec) 
Heartbeat CPU 0 instructions: 30000002 cycles: 9600290 heartbeat IPC: 3.11766 cumulative IPC: 3.12491 (Simulation time: 0 hr 1 min 29 sec) 
Heartbeat CPU 0 instructions: 40000003 cycles: 12804433 heartbeat IPC: 3.12096 cumulative IPC: 3.12392 (Simulation time: 0 hr 1 min 59 sec) 
Heartbeat CPU 0 instructions: 50000000 cycles: 16064517 heartbeat IPC: 3.0674 cumulative IPC: 3.11245 (Simulation time: 0 hr 2 min 28 sec) 

Warmup complete CPU 0 instructions: 50000004 cycles: 16064518 (Simulation time: 0 hr 2 min 28 sec) 

Heartbeat CPU 0 instructions: 60000001 cycles: 34717131 heartbeat IPC: 0.536118 cumulative IPC: 0.536118 (Simulation time: 0 hr 3 min 3 sec) 
Heartbeat CPU 0 instructions: 70000003 cycles: 57173970 heartbeat IPC: 0.445299 cumulative IPC: 0.486506 (Simulation time: 0 hr 3 min 44 sec) 
Heartbeat CPU 0 instructions: 80000000 cycles: 68766582 heartbeat IPC: 0.862618 cumulative IPC: 0.569238 (Simulation time: 0 hr 4 min 12 sec) 
Heartbeat CPU 0 instructions: 90000001 cycles: 80493847 heartbeat IPC: 0.852714 cumulative IPC: 0.620835 (Simulation time: 0 hr 4 min 40 sec) 
Heartbeat CPU 0 instructions: 100000001 cycles: 92085859 heartbeat IPC: 0.862663 cumulative IPC: 0.65771 (Simulation time: 0 hr 5 min 5 sec) 
Finished CPU 0 instructions: 50000000 cycles: 76021342 cumulative IPC: 0.65771 (Simulation time: 0 hr 5 min 5 sec) 

ChampSim completed all CPUs

Region of Interest Statistics

CPU 0 cumulative IPC: 0.65771 instructions: 50000000 cycles: 76021342
L1D TOTAL     ACCESS:   22778025  HIT:   18197174  MISS:    4580851
L1D LOAD      ACCESS:    9175301  HIT:    6905897  MISS:    2269404
L1D RFO       ACCESS:    4625071  HIT:    4520147  MISS:     104924
L1D PREFETCH  ACCESS:    8977653  HIT:    6771130  MISS:    2206523
L1D WRITEBACK ACCESS:          0  HIT:          0  MISS:          0
L1D PREFETCH  REQUESTED:    9208181  ISSUED:    9105979  USEFUL:     117063  USELESS:    2089459
L1D AVERAGE MISS LATENCY: 19.8954 cycles
L1I TOTAL     ACCESS:   25388455  HIT:   24192484  MISS:    1195971
L1I LOAD      ACCESS:    9723741  HIT:    9038832  MISS:     684909
L1I RFO       ACCESS:          0  HIT:          0  MISS:          0
L1I PREFETCH  ACCESS:   15664714  HIT:   15153652  MISS:     511062
L1I WRITEBACK ACCESS:          0  HIT:          0  MISS:          0
L1I PREFETCH  REQUESTED:   21627829  ISSUED:   21627829  USEFUL:     376384  USELESS:     134725
L1I AVERAGE MISS LATENCY: 28.7638 cycles
L2C TOTAL     ACCESS:    7593630  HIT:    6622231  MISS:     971399
L2C LOAD      ACCESS:    2905480  HIT:    2292466  MISS:     613014
L2C RFO       ACCESS:     103950  HIT:      65157  MISS:      38793
L2C PREFETCH  ACCESS:    4327300  HIT:    4008400  MISS:     318900
L2C WRITEBACK ACCESS:     256900  HIT:     256208  MISS:        692
L2C PREFETCH  REQUESTED:    7433940  ISSUED:    7432204  USEFUL:      55864  USELESS:     262829
L2C AVERAGE MISS LATENCY: 41.0301 cycles
LLC TOTAL     ACCESS:    2901835  HIT:    2756203  MISS:     145632
LLC LOAD      ACCESS:     590314  HIT:     557833  MISS:      32481
LLC RFO       ACCESS:      38792  HIT:      29928  MISS:       8864
LLC PREFETCH  ACCESS:    2139967  HIT:    2036147  MISS:     103820
LLC WRITEBACK ACCESS:     132762  HIT:     132295  MISS:        467
LLC PREFETCH  REQUESTED:          0  ISSUED:          0  USEFUL:      20417  USELESS:      82235
LLC AVERAGE MISS LATENCY: 160.681 cycles
Major fault: 0 Minor fault: 6351
CPU 0 L1I EPI prefetcher final stats
CPU 0 L1D next line prefetcher final stats

DRAM Statistics
 CHANNEL 0
 RQ ROW_BUFFER_HIT:      28719  ROW_BUFFER_MISS:     116440
 DBUS_CONGESTED:      57731
 WQ ROW_BUFFER_HIT:       8042  ROW_BUFFER_MISS:      40505  FULL:          0

 AVG_CONGESTED_CYCLE: 5

CPU 0 Branch Prediction Accuracy: 94.3582% MPKI: 11.8964 Average ROB Occupancy at Mispredict: 45.923

Branch types
NOT_BRANCH: 39456587 78.9132%
BRANCH_DIRECT_JUMP: 445350 0.8907%
BRANCH_INDIRECT: 131149 0.262298%
BRANCH_CONDITIONAL: 8130188 16.2604%
BRANCH_DIRECT_CALL: 732485 1.46497%
BRANCH_INDIRECT_CALL: 172369 0.344738%
BRANCH_RETURN: 931558 1.86312%
BRANCH_OTHER: 0 0%

