Initialize SIGNATURE TABLE
ST_SET: 1
ST_WAY: 256
ST_TAG_BIT: 16
ST_TAG_MASK: ffff

Initialize PATTERN TABLE
PT_SET: 512
PT_WAY: 4
SIG_DELTA_BIT: 7
C_SIG_BIT: 4
C_DELTA_BIT: 4

Initialize PREFETCH FILTER
FILTER_SET: 1024

*** ChampSim Multicore Out-of-Order Simulator ***

Warmup Instructions: 50000000
Simulation Instructions: 50000000
Number of CPUs: 1
LLC sets: 2048
LLC ways: 16
Off-chip DRAM Size: 4096 MB Channels: 1 Width: 64-bit Data Rate: 3200 MT/s

CPU 0 runs /home/xubinfang/Desktop/ChampSim/dpc3_traces/spec_gobmk_001.champsimtrace.xz
CPU 0 Bimodal branch predictor
CPU 0 EPI prefetcher
CPU 0 L1D next line prefetcher
Heartbeat CPU 0 instructions: 10000003 cycles: 3507007 heartbeat IPC: 2.85144 cumulative IPC: 2.85144 (Simulation time: 0 hr 0 min 27 sec) 
Heartbeat CPU 0 instructions: 20000002 cycles: 6987662 heartbeat IPC: 2.87302 cumulative IPC: 2.86219 (Simulation time: 0 hr 0 min 52 sec) 
Heartbeat CPU 0 instructions: 30000002 cycles: 10506620 heartbeat IPC: 2.84175 cumulative IPC: 2.85534 (Simulation time: 0 hr 1 min 20 sec) 
Heartbeat CPU 0 instructions: 40000001 cycles: 14026125 heartbeat IPC: 2.84131 cumulative IPC: 2.85182 (Simulation time: 0 hr 1 min 46 sec) 
Heartbeat CPU 0 instructions: 50000001 cycles: 17566472 heartbeat IPC: 2.82458 cumulative IPC: 2.84633 (Simulation time: 0 hr 2 min 12 sec) 

Warmup complete CPU 0 instructions: 50000001 cycles: 17566472 (Simulation time: 0 hr 2 min 12 sec) 

Heartbeat CPU 0 instructions: 60000000 cycles: 27272889 heartbeat IPC: 1.03025 cumulative IPC: 1.03025 (Simulation time: 0 hr 2 min 34 sec) 
Heartbeat CPU 0 instructions: 70000002 cycles: 36710322 heartbeat IPC: 1.05961 cumulative IPC: 1.04472 (Simulation time: 0 hr 2 min 58 sec) 
Heartbeat CPU 0 instructions: 80000003 cycles: 46569082 heartbeat IPC: 1.01433 cumulative IPC: 1.03439 (Simulation time: 0 hr 3 min 19 sec) 
Heartbeat CPU 0 instructions: 90000001 cycles: 56224648 heartbeat IPC: 1.03567 cumulative IPC: 1.03471 (Simulation time: 0 hr 3 min 39 sec) 
Heartbeat CPU 0 instructions: 100000000 cycles: 66060390 heartbeat IPC: 1.0167 cumulative IPC: 1.03106 (Simulation time: 0 hr 4 min 0 sec) 
Finished CPU 0 instructions: 50000002 cycles: 48493919 cumulative IPC: 1.03106 (Simulation time: 0 hr 4 min 0 sec) 

ChampSim completed all CPUs

Region of Interest Statistics

CPU 0 cumulative IPC: 1.03106 instructions: 50000002 cycles: 48493919
L1D TOTAL     ACCESS:   18486784  HIT:   18107173  MISS:     379611
L1D LOAD      ACCESS:    7453827  HIT:    7319479  MISS:     134348
L1D RFO       ACCESS:    3715751  HIT:    3611435  MISS:     104316
L1D PREFETCH  ACCESS:    7317206  HIT:    7176259  MISS:     140947
L1D WRITEBACK ACCESS:          0  HIT:          0  MISS:          0
L1D PREFETCH  REQUESTED:    7459103  ISSUED:    7375688  USEFUL:      46223  USELESS:      94730
L1D AVERAGE MISS LATENCY: 33.522 cycles
L1I TOTAL     ACCESS:   35865435  HIT:   34624986  MISS:    1240449
L1I LOAD      ACCESS:    9030646  HIT:    8957795  MISS:      72851
L1I RFO       ACCESS:          0  HIT:          0  MISS:          0
L1I PREFETCH  ACCESS:   26834789  HIT:   25667191  MISS:    1167598
L1I WRITEBACK ACCESS:          0  HIT:          0  MISS:          0
L1I PREFETCH  REQUESTED:   32329112  ISSUED:   32329112  USEFUL:     629755  USELESS:     537845
L1I AVERAGE MISS LATENCY: 14.9429 cycles
L2C TOTAL     ACCESS:    2508563  HIT:    2384810  MISS:     123753
L2C LOAD      ACCESS:     169599  HIT:     132107  MISS:      37492
L2C RFO       ACCESS:     103942  HIT:      69965  MISS:      33977
L2C PREFETCH  ACCESS:    2095710  HIT:    2043482  MISS:      52228
L2C WRITEBACK ACCESS:     139312  HIT:     139256  MISS:         56
L2C PREFETCH  REQUESTED:    1718777  ISSUED:    1718741  USEFUL:       4676  USELESS:      47629
L2C AVERAGE MISS LATENCY: 65.0891 cycles
LLC TOTAL     ACCESS:     292341  HIT:     255256  MISS:      37085
LLC LOAD      ACCESS:      37490  HIT:      29190  MISS:       8300
LLC RFO       ACCESS:      33977  HIT:      27143  MISS:       6834
LLC PREFETCH  ACCESS:     176186  HIT:     154501  MISS:      21685
LLC WRITEBACK ACCESS:      44688  HIT:      44422  MISS:        266
LLC PREFETCH  REQUESTED:          0  ISSUED:          0  USEFUL:       1478  USELESS:      18334
LLC AVERAGE MISS LATENCY: 178.458 cycles
Major fault: 0 Minor fault: 4157
CPU 0 L1I EPI prefetcher final stats
CPU 0 L1D next line prefetcher final stats

DRAM Statistics
 CHANNEL 0
 RQ ROW_BUFFER_HIT:       4623  ROW_BUFFER_MISS:      32196
 DBUS_CONGESTED:      21714
 WQ ROW_BUFFER_HIT:       1511  ROW_BUFFER_MISS:      15016  FULL:          0

 AVG_CONGESTED_CYCLE: 4

CPU 0 Branch Prediction Accuracy: 88.3128% MPKI: 21.7482 Average ROB Occupancy at Mispredict: 35.8015

Branch types
NOT_BRANCH: 40695356 81.3907%
BRANCH_DIRECT_JUMP: 422107 0.844214%
BRANCH_INDIRECT: 65 0.00013%
BRANCH_CONDITIONAL: 8105002 16.21%
BRANCH_DIRECT_CALL: 374912 0.749824%
BRANCH_INDIRECT_CALL: 13657 0.027314%
BRANCH_RETURN: 388556 0.777112%
BRANCH_OTHER: 0 0%

