Initialize SIGNATURE TABLE
ST_SET: 1
ST_WAY: 256
ST_TAG_BIT: 16
ST_TAG_MASK: ffff

Initialize PATTERN TABLE
PT_SET: 512
PT_WAY: 4
SIG_DELTA_BIT: 7
C_SIG_BIT: 4
C_DELTA_BIT: 4

Initialize PREFETCH FILTER
FILTER_SET: 1024

*** ChampSim Multicore Out-of-Order Simulator ***

Warmup Instructions: 50000000
Simulation Instructions: 50000000
Number of CPUs: 1
LLC sets: 2048
LLC ways: 16
Off-chip DRAM Size: 4096 MB Channels: 1 Width: 64-bit Data Rate: 3200 MT/s

CPU 0 runs /home/xubinfang/Desktop/ChampSim/dpc3_traces/spec_gcc_001.champsimtrace.xz
CPU 0 Bimodal branch predictor
CPU 0 EPI prefetcher
CPU 0 L1D next line prefetcher
Heartbeat CPU 0 instructions: 10000003 cycles: 3218655 heartbeat IPC: 3.10689 cumulative IPC: 3.10689 (Simulation time: 0 hr 0 min 28 sec) 
Heartbeat CPU 0 instructions: 20000002 cycles: 6462875 heartbeat IPC: 3.0824 cumulative IPC: 3.0946 (Simulation time: 0 hr 0 min 58 sec) 
Heartbeat CPU 0 instructions: 30000000 cycles: 9664606 heartbeat IPC: 3.12331 cumulative IPC: 3.10411 (Simulation time: 0 hr 1 min 24 sec) 
Heartbeat CPU 0 instructions: 40000001 cycles: 12904730 heartbeat IPC: 3.0863 cumulative IPC: 3.09964 (Simulation time: 0 hr 1 min 50 sec) 
Heartbeat CPU 0 instructions: 50000001 cycles: 16144469 heartbeat IPC: 3.08667 cumulative IPC: 3.09704 (Simulation time: 0 hr 2 min 17 sec) 

Warmup complete CPU 0 instructions: 50000001 cycles: 16144469 (Simulation time: 0 hr 2 min 17 sec) 

Heartbeat CPU 0 instructions: 60000000 cycles: 24448063 heartbeat IPC: 1.2043 cumulative IPC: 1.2043 (Simulation time: 0 hr 2 min 42 sec) 
Heartbeat CPU 0 instructions: 70000003 cycles: 32857795 heartbeat IPC: 1.1891 cumulative IPC: 1.19665 (Simulation time: 0 hr 3 min 9 sec) 
Heartbeat CPU 0 instructions: 80000000 cycles: 41062043 heartbeat IPC: 1.21888 cumulative IPC: 1.20397 (Simulation time: 0 hr 3 min 33 sec) 
Heartbeat CPU 0 instructions: 90000001 cycles: 49527437 heartbeat IPC: 1.18128 cumulative IPC: 1.19822 (Simulation time: 0 hr 3 min 56 sec) 
Heartbeat CPU 0 instructions: 100000000 cycles: 58275801 heartbeat IPC: 1.14307 cumulative IPC: 1.18677 (Simulation time: 0 hr 4 min 19 sec) 
Finished CPU 0 instructions: 50000000 cycles: 42131336 cumulative IPC: 1.18677 (Simulation time: 0 hr 4 min 19 sec) 

ChampSim completed all CPUs

Region of Interest Statistics

CPU 0 cumulative IPC: 1.18677 instructions: 50000000 cycles: 42131336
L1D TOTAL     ACCESS:   19881407  HIT:   18776183  MISS:    1105224
L1D LOAD      ACCESS:    7506570  HIT:    7029336  MISS:     477234
L1D RFO       ACCESS:    5129311  HIT:    5049355  MISS:      79956
L1D PREFETCH  ACCESS:    7245526  HIT:    6697492  MISS:     548034
L1D WRITEBACK ACCESS:          0  HIT:          0  MISS:          0
L1D PREFETCH  REQUESTED:    7549290  ISSUED:    7445843  USEFUL:     277806  USELESS:     270240
L1D AVERAGE MISS LATENCY: 25.0889 cycles
L1I TOTAL     ACCESS:   27376189  HIT:   26953923  MISS:     422266
L1I LOAD      ACCESS:    9337778  HIT:    9269858  MISS:      67920
L1I RFO       ACCESS:          0  HIT:          0  MISS:          0
L1I PREFETCH  ACCESS:   18038411  HIT:   17684065  MISS:     354346
L1I WRITEBACK ACCESS:          0  HIT:          0  MISS:          0
L1I PREFETCH  REQUESTED:   20976112  ISSUED:   20976112  USEFUL:     250423  USELESS:     103921
L1I AVERAGE MISS LATENCY: 20.2158 cycles
L2C TOTAL     ACCESS:    2622249  HIT:    2389918  MISS:     232331
L2C LOAD      ACCESS:     506532  HIT:     414958  MISS:      91574
L2C RFO       ACCESS:      75182  HIT:      37623  MISS:      37559
L2C PREFETCH  ACCESS:    1786744  HIT:    1683880  MISS:     102864
L2C WRITEBACK ACCESS:     253791  HIT:     253457  MISS:        334
L2C PREFETCH  REQUESTED:    1735396  ISSUED:    1735188  USEFUL:      29351  USELESS:      72817
L2C AVERAGE MISS LATENCY: 62.8735 cycles
LLC TOTAL     ACCESS:     610334  HIT:     540331  MISS:      70003
LLC LOAD      ACCESS:      91397  HIT:      78787  MISS:      12610
LLC RFO       ACCESS:      37558  HIT:      17234  MISS:      20324
LLC PREFETCH  ACCESS:     393062  HIT:     357094  MISS:      35968
LLC WRITEBACK ACCESS:      88317  HIT:      87216  MISS:       1101
LLC PREFETCH  REQUESTED:          0  ISSUED:          0  USEFUL:      13917  USELESS:      21922
LLC AVERAGE MISS LATENCY: 184.123 cycles
Major fault: 0 Minor fault: 6867
CPU 0 L1I EPI prefetcher final stats
CPU 0 L1D next line prefetcher final stats

DRAM Statistics
 CHANNEL 0
 RQ ROW_BUFFER_HIT:      19345  ROW_BUFFER_MISS:      49555
 DBUS_CONGESTED:      35269
 WQ ROW_BUFFER_HIT:       4511  ROW_BUFFER_MISS:      21936  FULL:          0

 AVG_CONGESTED_CYCLE: 6

CPU 0 Branch Prediction Accuracy: 92.4925% MPKI: 17.6569 Average ROB Occupancy at Mispredict: 58.2536

Branch types
NOT_BRANCH: 38240123 76.4802%
BRANCH_DIRECT_JUMP: 653297 1.30659%
BRANCH_INDIRECT: 37098 0.074196%
BRANCH_CONDITIONAL: 8897823 17.7956%
BRANCH_DIRECT_CALL: 992621 1.98524%
BRANCH_INDIRECT_CALL: 93046 0.186092%
BRANCH_RETURN: 1085674 2.17135%
BRANCH_OTHER: 0 0%

