Initialize SIGNATURE TABLE
ST_SET: 1
ST_WAY: 256
ST_TAG_BIT: 16
ST_TAG_MASK: ffff

Initialize PATTERN TABLE
PT_SET: 512
PT_WAY: 4
SIG_DELTA_BIT: 7
C_SIG_BIT: 4
C_DELTA_BIT: 4

Initialize PREFETCH FILTER
FILTER_SET: 1024

*** ChampSim Multicore Out-of-Order Simulator ***

Warmup Instructions: 50000000
Simulation Instructions: 50000000
Number of CPUs: 1
LLC sets: 2048
LLC ways: 16
Off-chip DRAM Size: 4096 MB Channels: 1 Width: 64-bit Data Rate: 3200 MT/s

CPU 0 runs /home/xubinfang/Desktop/ChampSim/dpc3_traces/spec_gcc_003.champsimtrace.xz
CPU 0 Bimodal branch predictor
CPU 0 EPI prefetcher
CPU 0 L1D next line prefetcher
Heartbeat CPU 0 instructions: 10000001 cycles: 3498486 heartbeat IPC: 2.85838 cumulative IPC: 2.85838 (Simulation time: 0 hr 0 min 24 sec) 
Heartbeat CPU 0 instructions: 20000000 cycles: 6981110 heartbeat IPC: 2.8714 cumulative IPC: 2.86487 (Simulation time: 0 hr 0 min 45 sec) 
Heartbeat CPU 0 instructions: 30000002 cycles: 10430031 heartbeat IPC: 2.89946 cumulative IPC: 2.87631 (Simulation time: 0 hr 1 min 8 sec) 
Heartbeat CPU 0 instructions: 40000000 cycles: 13912655 heartbeat IPC: 2.8714 cumulative IPC: 2.87508 (Simulation time: 0 hr 1 min 31 sec) 
Heartbeat CPU 0 instructions: 50000001 cycles: 17226014 heartbeat IPC: 3.01809 cumulative IPC: 2.90259 (Simulation time: 0 hr 1 min 54 sec) 

Warmup complete CPU 0 instructions: 50000001 cycles: 17226014 (Simulation time: 0 hr 1 min 54 sec) 

Heartbeat CPU 0 instructions: 60000000 cycles: 58261801 heartbeat IPC: 0.24369 cumulative IPC: 0.24369 (Simulation time: 0 hr 2 min 47 sec) 
Heartbeat CPU 0 instructions: 70000000 cycles: 102061712 heartbeat IPC: 0.228311 cumulative IPC: 0.23575 (Simulation time: 0 hr 3 min 43 sec) 
Heartbeat CPU 0 instructions: 80000002 cycles: 146646826 heartbeat IPC: 0.22429 cumulative IPC: 0.231802 (Simulation time: 0 hr 4 min 36 sec) 
Heartbeat CPU 0 instructions: 90000002 cycles: 184190845 heartbeat IPC: 0.266354 cumulative IPC: 0.239571 (Simulation time: 0 hr 5 min 22 sec) 
Heartbeat CPU 0 instructions: 100000001 cycles: 231236082 heartbeat IPC: 0.212561 cumulative IPC: 0.233634 (Simulation time: 0 hr 6 min 18 sec) 
Finished CPU 0 instructions: 50000000 cycles: 214010068 cumulative IPC: 0.233634 (Simulation time: 0 hr 6 min 18 sec) 

ChampSim completed all CPUs

Region of Interest Statistics

CPU 0 cumulative IPC: 0.233634 instructions: 50000000 cycles: 214010068
L1D TOTAL     ACCESS:   17539248  HIT:   11814672  MISS:    5724576
L1D LOAD      ACCESS:    4878410  HIT:    4496812  MISS:     381598
L1D RFO       ACCESS:    8266612  HIT:    3215050  MISS:    5051562
L1D PREFETCH  ACCESS:    4394226  HIT:    4102810  MISS:     291416
L1D WRITEBACK ACCESS:          0  HIT:          0  MISS:          0
L1D PREFETCH  REQUESTED:    4898071  ISSUED:    4841400  USEFUL:     153711  USELESS:     137885
L1D AVERAGE MISS LATENCY: 500.191 cycles
L1I TOTAL     ACCESS:   24270490  HIT:   23163260  MISS:    1107230
L1I LOAD      ACCESS:   11314736  HIT:   11186143  MISS:     128593
L1I RFO       ACCESS:          0  HIT:          0  MISS:          0
L1I PREFETCH  ACCESS:   12955754  HIT:   11977117  MISS:     978637
L1I WRITEBACK ACCESS:          0  HIT:          0  MISS:          0
L1I PREFETCH  REQUESTED:   16207611  ISSUED:   16207611  USEFUL:     680406  USELESS:     298185
L1I AVERAGE MISS LATENCY: 58.7309 cycles
L2C TOTAL     ACCESS:   12319990  HIT:    6277505  MISS:    6042485
L2C LOAD      ACCESS:     296994  HIT:      82225  MISS:     214769
L2C RFO       ACCESS:    5049965  HIT:       6626  MISS:    5043339
L2C PREFETCH  ACCESS:    1815109  HIT:    1031028  MISS:     784081
L2C WRITEBACK ACCESS:    5157922  HIT:    5157626  MISS:        296
L2C PREFETCH  REQUESTED:    2111509  ISSUED:    2111462  USEFUL:      35326  USELESS:     745675
L2C AVERAGE MISS LATENCY: 470.591 cycles
LLC TOTAL     ACCESS:   11971450  HIT:    7268758  MISS:    4702692
LLC LOAD      ACCESS:     214733  HIT:     158333  MISS:      56400
LLC RFO       ACCESS:    5043338  HIT:     649410  MISS:    4393928
LLC PREFETCH  ACCESS:    1579596  HIT:    1327232  MISS:     252364
LLC WRITEBACK ACCESS:    5133783  HIT:    5133783  MISS:          0
LLC PREFETCH  REQUESTED:          0  ISSUED:          0  USEFUL:      25773  USELESS:     226485
LLC AVERAGE MISS LATENCY: 573.734 cycles
Major fault: 0 Minor fault: 2822
CPU 0 L1I EPI prefetcher final stats
CPU 0 L1D next line prefetcher final stats

DRAM Statistics
 CHANNEL 0
 RQ ROW_BUFFER_HIT:    1419756  ROW_BUFFER_MISS:    3282900
 DBUS_CONGESTED:    8156284
 WQ ROW_BUFFER_HIT:    1184729  ROW_BUFFER_MISS:    3238078  FULL:          0

 AVG_CONGESTED_CYCLE: 6

CPU 0 Branch Prediction Accuracy: 96.3569% MPKI: 8.52058 Average ROB Occupancy at Mispredict: 52.3765

Branch types
NOT_BRANCH: 38305856 76.6117%
BRANCH_DIRECT_JUMP: 384281 0.768562%
BRANCH_INDIRECT: 71949 0.143898%
BRANCH_CONDITIONAL: 9879825 19.7597%
BRANCH_DIRECT_CALL: 650586 1.30117%
BRANCH_INDIRECT_CALL: 28456 0.056912%
BRANCH_RETURN: 679046 1.35809%
BRANCH_OTHER: 0 0%

