Initialize SIGNATURE TABLE
ST_SET: 1
ST_WAY: 256
ST_TAG_BIT: 16
ST_TAG_MASK: ffff

Initialize PATTERN TABLE
PT_SET: 512
PT_WAY: 4
SIG_DELTA_BIT: 7
C_SIG_BIT: 4
C_DELTA_BIT: 4

Initialize PREFETCH FILTER
FILTER_SET: 1024

*** ChampSim Multicore Out-of-Order Simulator ***

Warmup Instructions: 50000000
Simulation Instructions: 50000000
Number of CPUs: 1
LLC sets: 2048
LLC ways: 16
Off-chip DRAM Size: 4096 MB Channels: 1 Width: 64-bit Data Rate: 3200 MT/s

CPU 0 runs /home/yuc621/Champsim/dpc3_traces/client_002.champsimtrace.xz
CPU 0 Bimodal branch predictor
CPU 0 EPI prefetcher
CPU 0 L1D next line prefetcher
Heartbeat CPU 0 instructions: 10000000 cycles: 3405084 heartbeat IPC: 2.93679 cumulative IPC: 2.93679 (Simulation time: 0 hr 0 min 26 sec) 
Heartbeat CPU 0 instructions: 20000002 cycles: 6860826 heartbeat IPC: 2.89374 cumulative IPC: 2.9151 (Simulation time: 0 hr 0 min 54 sec) 
Heartbeat CPU 0 instructions: 30000001 cycles: 10293746 heartbeat IPC: 2.91297 cumulative IPC: 2.91439 (Simulation time: 0 hr 1 min 21 sec) 
Heartbeat CPU 0 instructions: 40000002 cycles: 13726637 heartbeat IPC: 2.913 cumulative IPC: 2.91404 (Simulation time: 0 hr 1 min 49 sec) 
Heartbeat CPU 0 instructions: 50000002 cycles: 17167543 heartbeat IPC: 2.90621 cumulative IPC: 2.91247 (Simulation time: 0 hr 2 min 17 sec) 

Warmup complete CPU 0 instructions: 50000002 cycles: 17167543 (Simulation time: 0 hr 2 min 17 sec) 

Heartbeat CPU 0 instructions: 60000002 cycles: 23865858 heartbeat IPC: 1.49291 cumulative IPC: 1.49291 (Simulation time: 0 hr 2 min 41 sec) 
Heartbeat CPU 0 instructions: 70000001 cycles: 30645493 heartbeat IPC: 1.47501 cumulative IPC: 1.48391 (Simulation time: 0 hr 3 min 4 sec) 
Heartbeat CPU 0 instructions: 80000003 cycles: 37231499 heartbeat IPC: 1.51837 cumulative IPC: 1.49522 (Simulation time: 0 hr 3 min 28 sec) 
Heartbeat CPU 0 instructions: 90000001 cycles: 44348094 heartbeat IPC: 1.40517 cumulative IPC: 1.47164 (Simulation time: 0 hr 3 min 52 sec) 
Heartbeat CPU 0 instructions: 100000003 cycles: 51010602 heartbeat IPC: 1.50094 cumulative IPC: 1.47741 (Simulation time: 0 hr 4 min 16 sec) 
Finished CPU 0 instructions: 50000001 cycles: 33843059 cumulative IPC: 1.47741 (Simulation time: 0 hr 4 min 16 sec) 

ChampSim completed all CPUs

Region of Interest Statistics

CPU 0 cumulative IPC: 1.47741 instructions: 50000001 cycles: 33843059
L1D TOTAL     ACCESS:   20024138  HIT:   19684708  MISS:     339430
L1D LOAD      ACCESS:    6930866  HIT:    6814895  MISS:     115971
L1D RFO       ACCESS:    6436562  HIT:    6346779  MISS:      89783
L1D PREFETCH  ACCESS:    6656710  HIT:    6523034  MISS:     133676
L1D WRITEBACK ACCESS:          0  HIT:          0  MISS:          0
L1D PREFETCH  REQUESTED:    6942047  ISSUED:    6732992  USEFUL:      54846  USELESS:      78972
L1D AVERAGE MISS LATENCY: 48.246 cycles
L1I TOTAL     ACCESS:   39302659  HIT:   38349949  MISS:     952710
L1I LOAD      ACCESS:    9574504  HIT:    9534855  MISS:      39649
L1I RFO       ACCESS:          0  HIT:          0  MISS:          0
L1I PREFETCH  ACCESS:   29728155  HIT:   28815094  MISS:     913061
L1I WRITEBACK ACCESS:          0  HIT:          0  MISS:          0
L1I PREFETCH  REQUESTED:   39796924  ISSUED:   39796924  USEFUL:     636843  USELESS:     276220
L1I AVERAGE MISS LATENCY: 18.4427 cycles
L2C TOTAL     ACCESS:    1854945  HIT:    1608143  MISS:     246802
L2C LOAD      ACCESS:     135031  HIT:      94600  MISS:      40431
L2C RFO       ACCESS:      88819  HIT:      22574  MISS:      66245
L2C PREFETCH  ACCESS:    1505590  HIT:    1366017  MISS:     139573
L2C WRITEBACK ACCESS:     125505  HIT:     124952  MISS:        553
L2C PREFETCH  REQUESTED:    1286270  ISSUED:    1285429  USEFUL:      10433  USELESS:     127819
L2C AVERAGE MISS LATENCY: 62.7955 cycles
LLC TOTAL     ACCESS:     622526  HIT:     558695  MISS:      63831
LLC LOAD      ACCESS:      40429  HIT:      34922  MISS:       5507
LLC RFO       ACCESS:      66245  HIT:      36844  MISS:      29401
LLC PREFETCH  ACCESS:     431241  HIT:     402536  MISS:      28705
LLC WRITEBACK ACCESS:      84611  HIT:      84393  MISS:        218
LLC PREFETCH  REQUESTED:          0  ISSUED:          0  USEFUL:       6144  USELESS:      20674
LLC AVERAGE MISS LATENCY: 174.692 cycles
Major fault: 0 Minor fault: 3096
CPU 0 L1I EPI prefetcher final stats
CPU 0 L1D next line prefetcher final stats

DRAM Statistics
 CHANNEL 0
 RQ ROW_BUFFER_HIT:      22583  ROW_BUFFER_MISS:      41030
 DBUS_CONGESTED:      43247
 WQ ROW_BUFFER_HIT:       9217  ROW_BUFFER_MISS:      28266  FULL:          0

 AVG_CONGESTED_CYCLE: 6

CPU 0 Branch Prediction Accuracy: 94.6086% MPKI: 10.2416 Average ROB Occupancy at Mispredict: 57.7372

Branch types
NOT_BRANCH: 40501603 81.0032%
BRANCH_DIRECT_JUMP: 517397 1.03479%
BRANCH_INDIRECT: 112347 0.224694%
BRANCH_CONDITIONAL: 6698736 13.3975%
BRANCH_DIRECT_CALL: 960974 1.92195%
BRANCH_INDIRECT_CALL: 123707 0.247414%
BRANCH_RETURN: 1084929 2.16986%
BRANCH_OTHER: 0 0%

