Initialize SIGNATURE TABLE
ST_SET: 1
ST_WAY: 256
ST_TAG_BIT: 16
ST_TAG_MASK: ffff

Initialize PATTERN TABLE
PT_SET: 512
PT_WAY: 4
SIG_DELTA_BIT: 7
C_SIG_BIT: 4
C_DELTA_BIT: 4

Initialize PREFETCH FILTER
FILTER_SET: 1024

*** ChampSim Multicore Out-of-Order Simulator ***

Warmup Instructions: 50000000
Simulation Instructions: 50000000
Number of CPUs: 1
LLC sets: 2048
LLC ways: 16
Off-chip DRAM Size: 4096 MB Channels: 1 Width: 64-bit Data Rate: 3200 MT/s

CPU 0 runs /home/yuc621/Champsim/dpc3_traces/client_005.champsimtrace.xz
CPU 0 Bimodal branch predictor
CPU 0 EPI prefetcher
CPU 0 L1D next line prefetcher
Heartbeat CPU 0 instructions: 10000001 cycles: 3292323 heartbeat IPC: 3.03737 cumulative IPC: 3.03737 (Simulation time: 0 hr 0 min 26 sec) 
Heartbeat CPU 0 instructions: 20000002 cycles: 6698768 heartbeat IPC: 2.93561 cumulative IPC: 2.98562 (Simulation time: 0 hr 0 min 55 sec) 
Heartbeat CPU 0 instructions: 30000001 cycles: 10392160 heartbeat IPC: 2.70754 cumulative IPC: 2.88679 (Simulation time: 0 hr 1 min 26 sec) 
Heartbeat CPU 0 instructions: 40000000 cycles: 14070148 heartbeat IPC: 2.71888 cumulative IPC: 2.8429 (Simulation time: 0 hr 1 min 57 sec) 
Heartbeat CPU 0 instructions: 50000001 cycles: 17344556 heartbeat IPC: 3.05399 cumulative IPC: 2.88275 (Simulation time: 0 hr 2 min 25 sec) 

Warmup complete CPU 0 instructions: 50000001 cycles: 17344556 (Simulation time: 0 hr 2 min 25 sec) 

Heartbeat CPU 0 instructions: 60000001 cycles: 25333685 heartbeat IPC: 1.2517 cumulative IPC: 1.2517 (Simulation time: 0 hr 2 min 50 sec) 
Heartbeat CPU 0 instructions: 70000003 cycles: 32963173 heartbeat IPC: 1.3107 cumulative IPC: 1.28052 (Simulation time: 0 hr 3 min 16 sec) 
Heartbeat CPU 0 instructions: 80000001 cycles: 40078518 heartbeat IPC: 1.40541 cumulative IPC: 1.31961 (Simulation time: 0 hr 3 min 45 sec) 
Heartbeat CPU 0 instructions: 90000002 cycles: 49852464 heartbeat IPC: 1.02313 cumulative IPC: 1.23047 (Simulation time: 0 hr 4 min 15 sec) 
Heartbeat CPU 0 instructions: 100000002 cycles: 57906542 heartbeat IPC: 1.24161 cumulative IPC: 1.23268 (Simulation time: 0 hr 4 min 40 sec) 
Finished CPU 0 instructions: 50000001 cycles: 40561986 cumulative IPC: 1.23268 (Simulation time: 0 hr 4 min 40 sec) 

ChampSim completed all CPUs

Region of Interest Statistics

CPU 0 cumulative IPC: 1.23268 instructions: 50000001 cycles: 40561986
L1D TOTAL     ACCESS:   20108281  HIT:   19572276  MISS:     536005
L1D LOAD      ACCESS:    6882014  HIT:    6710713  MISS:     171301
L1D RFO       ACCESS:    6806790  HIT:    6622435  MISS:     184355
L1D PREFETCH  ACCESS:    6419477  HIT:    6239128  MISS:     180349
L1D WRITEBACK ACCESS:          0  HIT:          0  MISS:          0
L1D PREFETCH  REQUESTED:    6906142  ISSUED:    6529051  USEFUL:      59989  USELESS:     120248
L1D AVERAGE MISS LATENCY: 92.4784 cycles
L1I TOTAL     ACCESS:   39675599  HIT:   38293891  MISS:    1381708
L1I LOAD      ACCESS:    9307371  HIT:    9227378  MISS:      79993
L1I RFO       ACCESS:          0  HIT:          0  MISS:          0
L1I PREFETCH  ACCESS:   30368228  HIT:   29066513  MISS:    1301715
L1I WRITEBACK ACCESS:          0  HIT:          0  MISS:          0
L1I PREFETCH  REQUESTED:   38663203  ISSUED:   38663203  USEFUL:     773716  USELESS:     527973
L1I AVERAGE MISS LATENCY: 19.8817 cycles
L2C TOTAL     ACCESS:    2833524  HIT:    2434172  MISS:     399352
L2C LOAD      ACCESS:     218027  HIT:     136654  MISS:      81373
L2C RFO       ACCESS:     180795  HIT:      31894  MISS:     148901
L2C PREFETCH  ACCESS:    2181667  HIT:    2014150  MISS:     167517
L2C WRITEBACK ACCESS:     253035  HIT:     251474  MISS:       1561
L2C PREFETCH  REQUESTED:    2031524  ISSUED:    2030886  USEFUL:      13757  USELESS:     151355
L2C AVERAGE MISS LATENCY: 125.57 cycles
LLC TOTAL     ACCESS:     996241  HIT:     694556  MISS:     301685
LLC LOAD      ACCESS:      81355  HIT:      40911  MISS:      40444
LLC RFO       ACCESS:     148900  HIT:      18743  MISS:     130157
LLC PREFETCH  ACCESS:     566870  HIT:     436749  MISS:     130121
LLC WRITEBACK ACCESS:     199116  HIT:     198153  MISS:        963
LLC PREFETCH  REQUESTED:          0  ISSUED:          0  USEFUL:      27592  USELESS:      96847
LLC AVERAGE MISS LATENCY: 171.468 cycles
Major fault: 0 Minor fault: 6089
CPU 0 L1I EPI prefetcher final stats
CPU 0 L1D next line prefetcher final stats

DRAM Statistics
 CHANNEL 0
 RQ ROW_BUFFER_HIT:      98330  ROW_BUFFER_MISS:     202384
 DBUS_CONGESTED:     241594
 WQ ROW_BUFFER_HIT:      50569  ROW_BUFFER_MISS:     132823  FULL:          0

 AVG_CONGESTED_CYCLE: 6

CPU 0 Branch Prediction Accuracy: 94.8377% MPKI: 9.44012 Average ROB Occupancy at Mispredict: 68.5464

Branch types
NOT_BRANCH: 40856320 81.7126%
BRANCH_DIRECT_JUMP: 484667 0.969334%
BRANCH_INDIRECT: 85086 0.170172%
BRANCH_CONDITIONAL: 6230885 12.4618%
BRANCH_DIRECT_CALL: 1028917 2.05783%
BRANCH_INDIRECT_CALL: 141825 0.28365%
BRANCH_RETURN: 1171985 2.34397%
BRANCH_OTHER: 0 0%

