Initialize SIGNATURE TABLE
ST_SET: 1
ST_WAY: 256
ST_TAG_BIT: 16
ST_TAG_MASK: ffff

Initialize PATTERN TABLE
PT_SET: 512
PT_WAY: 4
SIG_DELTA_BIT: 7
C_SIG_BIT: 4
C_DELTA_BIT: 4

Initialize PREFETCH FILTER
FILTER_SET: 1024

*** ChampSim Multicore Out-of-Order Simulator ***

Warmup Instructions: 50000000
Simulation Instructions: 50000000
Number of CPUs: 1
LLC sets: 2048
LLC ways: 16
Off-chip DRAM Size: 4096 MB Channels: 1 Width: 64-bit Data Rate: 3200 MT/s

CPU 0 runs /home/yuc621/Champsim/dpc3_traces/client_007.champsimtrace.xz
CPU 0 Bimodal branch predictor
CPU 0 EPI prefetcher
CPU 0 L1D next line prefetcher
Heartbeat CPU 0 instructions: 10000001 cycles: 3641785 heartbeat IPC: 2.74591 cumulative IPC: 2.74591 (Simulation time: 0 hr 0 min 25 sec) 
Heartbeat CPU 0 instructions: 20000003 cycles: 7033263 heartbeat IPC: 2.94857 cumulative IPC: 2.84363 (Simulation time: 0 hr 0 min 49 sec) 
Heartbeat CPU 0 instructions: 30000000 cycles: 10904475 heartbeat IPC: 2.58317 cumulative IPC: 2.75116 (Simulation time: 0 hr 1 min 16 sec) 
Heartbeat CPU 0 instructions: 40000003 cycles: 15064309 heartbeat IPC: 2.40394 cumulative IPC: 2.65528 (Simulation time: 0 hr 1 min 43 sec) 
Heartbeat CPU 0 instructions: 50000002 cycles: 18469131 heartbeat IPC: 2.93701 cumulative IPC: 2.70722 (Simulation time: 0 hr 2 min 8 sec) 

Warmup complete CPU 0 instructions: 50000002 cycles: 18469131 (Simulation time: 0 hr 2 min 8 sec) 

Heartbeat CPU 0 instructions: 60000001 cycles: 25763863 heartbeat IPC: 1.37085 cumulative IPC: 1.37085 (Simulation time: 0 hr 2 min 33 sec) 
Heartbeat CPU 0 instructions: 70000003 cycles: 34799594 heartbeat IPC: 1.10672 cumulative IPC: 1.22471 (Simulation time: 0 hr 3 min 2 sec) 
Heartbeat CPU 0 instructions: 80000002 cycles: 40570271 heartbeat IPC: 1.7329 cumulative IPC: 1.3574 (Simulation time: 0 hr 3 min 18 sec) 
Heartbeat CPU 0 instructions: 90000000 cycles: 48830409 heartbeat IPC: 1.21063 cumulative IPC: 1.31747 (Simulation time: 0 hr 3 min 43 sec) 
Heartbeat CPU 0 instructions: 100000001 cycles: 58843581 heartbeat IPC: 0.998685 cumulative IPC: 1.23841 (Simulation time: 0 hr 4 min 3 sec) 
Finished CPU 0 instructions: 50000000 cycles: 40374451 cumulative IPC: 1.23841 (Simulation time: 0 hr 4 min 3 sec) 

ChampSim completed all CPUs

Region of Interest Statistics

CPU 0 cumulative IPC: 1.23841 instructions: 50000000 cycles: 40374451
L1D TOTAL     ACCESS:   22075584  HIT:   20905524  MISS:    1170060
L1D LOAD      ACCESS:    8772154  HIT:    8236670  MISS:     535484
L1D RFO       ACCESS:    4954996  HIT:    4865062  MISS:      89934
L1D PREFETCH  ACCESS:    8348434  HIT:    7803792  MISS:     544642
L1D WRITEBACK ACCESS:          0  HIT:          0  MISS:          0
L1D PREFETCH  REQUESTED:    8834691  ISSUED:    8587363  USEFUL:     162447  USELESS:     382212
L1D AVERAGE MISS LATENCY: 34.0758 cycles
L1I TOTAL     ACCESS:   27883825  HIT:   26872312  MISS:    1011513
L1I LOAD      ACCESS:    8979197  HIT:    8969643  MISS:       9554
L1I RFO       ACCESS:          0  HIT:          0  MISS:          0
L1I PREFETCH  ACCESS:   18904628  HIT:   17902669  MISS:    1001959
L1I WRITEBACK ACCESS:          0  HIT:          0  MISS:          0
L1I PREFETCH  REQUESTED:   22285139  ISSUED:   22285139  USEFUL:     840045  USELESS:     161927
L1I AVERAGE MISS LATENCY: 16.8928 cycles
L2C TOTAL     ACCESS:    3145616  HIT:    2939604  MISS:     206012
L2C LOAD      ACCESS:     513590  HIT:     445518  MISS:      68072
L2C RFO       ACCESS:      87852  HIT:      47917  MISS:      39935
L2C PREFETCH  ACCESS:    2216310  HIT:    2118411  MISS:      97899
L2C WRITEBACK ACCESS:     327864  HIT:     327758  MISS:        106
L2C PREFETCH  REQUESTED:    2564160  ISSUED:    2559486  USEFUL:       8946  USELESS:      89085
L2C AVERAGE MISS LATENCY: 124.581 cycles
LLC TOTAL     ACCESS:     972862  HIT:     805391  MISS:     167471
LLC LOAD      ACCESS:      67975  HIT:      33747  MISS:      34228
LLC RFO       ACCESS:      39935  HIT:       7753  MISS:      32182
LLC PREFETCH  ACCESS:     790611  HIT:     689846  MISS:     100765
LLC WRITEBACK ACCESS:      74341  HIT:      74045  MISS:        296
LLC PREFETCH  REQUESTED:          0  ISSUED:          0  USEFUL:      19047  USELESS:      82143
LLC AVERAGE MISS LATENCY: 183.17 cycles
Major fault: 0 Minor fault: 4406
CPU 0 L1I EPI prefetcher final stats
CPU 0 L1D next line prefetcher final stats

DRAM Statistics
 CHANNEL 0
 RQ ROW_BUFFER_HIT:      33811  ROW_BUFFER_MISS:     133359
 DBUS_CONGESTED:      90820
 WQ ROW_BUFFER_HIT:      12809  ROW_BUFFER_MISS:      45585  FULL:          0

 AVG_CONGESTED_CYCLE: 5

CPU 0 Branch Prediction Accuracy: 94.8618% MPKI: 8.3988 Average ROB Occupancy at Mispredict: 71.518

Branch types
NOT_BRANCH: 41826773 83.6535%
BRANCH_DIRECT_JUMP: 735330 1.47066%
BRANCH_INDIRECT: 269194 0.538388%
BRANCH_CONDITIONAL: 5957947 11.9159%
BRANCH_DIRECT_CALL: 368758 0.737516%
BRANCH_INDIRECT_CALL: 226975 0.45395%
BRANCH_RETURN: 614696 1.22939%
BRANCH_OTHER: 0 0%

