Initialize SIGNATURE TABLE
ST_SET: 1
ST_WAY: 256
ST_TAG_BIT: 16
ST_TAG_MASK: ffff

Initialize PATTERN TABLE
PT_SET: 512
PT_WAY: 4
SIG_DELTA_BIT: 7
C_SIG_BIT: 4
C_DELTA_BIT: 4

Initialize PREFETCH FILTER
FILTER_SET: 1024

*** ChampSim Multicore Out-of-Order Simulator ***

Warmup Instructions: 50000000
Simulation Instructions: 50000000
Number of CPUs: 1
LLC sets: 2048
LLC ways: 16
Off-chip DRAM Size: 4096 MB Channels: 1 Width: 64-bit Data Rate: 3200 MT/s

CPU 0 runs /home/yuc621/Champsim/dpc3_traces/client_003.champsimtrace.xz
CPU 0 Bimodal branch predictor
CPU 0 EPI prefetcher
CPU 0 L1D next line prefetcher
Heartbeat CPU 0 instructions: 10000000 cycles: 3478716 heartbeat IPC: 2.87462 cumulative IPC: 2.87462 (Simulation time: 0 hr 0 min 28 sec) 
Heartbeat CPU 0 instructions: 20000002 cycles: 6933660 heartbeat IPC: 2.8944 cumulative IPC: 2.88448 (Simulation time: 0 hr 0 min 57 sec) 
Heartbeat CPU 0 instructions: 30000003 cycles: 10494900 heartbeat IPC: 2.80801 cumulative IPC: 2.85853 (Simulation time: 0 hr 1 min 27 sec) 
Heartbeat CPU 0 instructions: 40000001 cycles: 14111667 heartbeat IPC: 2.7649 cumulative IPC: 2.83453 (Simulation time: 0 hr 1 min 57 sec) 
Heartbeat CPU 0 instructions: 50000003 cycles: 17657061 heartbeat IPC: 2.82056 cumulative IPC: 2.83173 (Simulation time: 0 hr 2 min 27 sec) 

Warmup complete CPU 0 instructions: 50000003 cycles: 17657061 (Simulation time: 0 hr 2 min 27 sec) 

Heartbeat CPU 0 instructions: 60000002 cycles: 24266775 heartbeat IPC: 1.51292 cumulative IPC: 1.51292 (Simulation time: 0 hr 2 min 54 sec) 
Heartbeat CPU 0 instructions: 70000001 cycles: 30723433 heartbeat IPC: 1.54879 cumulative IPC: 1.53065 (Simulation time: 0 hr 3 min 20 sec) 
Heartbeat CPU 0 instructions: 80000003 cycles: 37912053 heartbeat IPC: 1.39109 cumulative IPC: 1.48112 (Simulation time: 0 hr 3 min 46 sec) 
Heartbeat CPU 0 instructions: 90000000 cycles: 46951309 heartbeat IPC: 1.10629 cumulative IPC: 1.36546 (Simulation time: 0 hr 4 min 4 sec) 
Heartbeat CPU 0 instructions: 100000003 cycles: 57835593 heartbeat IPC: 0.918756 cumulative IPC: 1.24445 (Simulation time: 0 hr 4 min 25 sec) 
Finished CPU 0 instructions: 50000000 cycles: 40178532 cumulative IPC: 1.24445 (Simulation time: 0 hr 4 min 25 sec) 

ChampSim completed all CPUs

Region of Interest Statistics

CPU 0 cumulative IPC: 1.24445 instructions: 50000000 cycles: 40178532
L1D TOTAL     ACCESS:   17996737  HIT:   17500583  MISS:     496154
L1D LOAD      ACCESS:    6219058  HIT:    6092279  MISS:     126779
L1D RFO       ACCESS:    5955634  HIT:    5721311  MISS:     234323
L1D PREFETCH  ACCESS:    5822045  HIT:    5686993  MISS:     135052
L1D WRITEBACK ACCESS:          0  HIT:          0  MISS:          0
L1D PREFETCH  REQUESTED:    6261063  ISSUED:    6116491  USEFUL:      67024  USELESS:      68076
L1D AVERAGE MISS LATENCY: 122.158 cycles
L1I TOTAL     ACCESS:   31550722  HIT:   30648284  MISS:     902438
L1I LOAD      ACCESS:    9428787  HIT:    9376498  MISS:      52289
L1I RFO       ACCESS:          0  HIT:          0  MISS:          0
L1I PREFETCH  ACCESS:   22121935  HIT:   21271786  MISS:     850149
L1I WRITEBACK ACCESS:          0  HIT:          0  MISS:          0
L1I PREFETCH  REQUESTED:   28727689  ISSUED:   28727689  USEFUL:     526884  USELESS:     323321
L1I AVERAGE MISS LATENCY: 20.3956 cycles
L2C TOTAL     ACCESS:    2093674  HIT:    1689437  MISS:     404237
L2C LOAD      ACCESS:     130586  HIT:      90209  MISS:      40377
L2C RFO       ACCESS:     232286  HIT:      25265  MISS:     207021
L2C PREFETCH  ACCESS:    1461515  HIT:    1305972  MISS:     155543
L2C WRITEBACK ACCESS:     269287  HIT:     267991  MISS:       1296
L2C PREFETCH  REQUESTED:    1483740  ISSUED:    1483067  USEFUL:      10842  USELESS:     144720
L2C AVERAGE MISS LATENCY: 165.423 cycles
LLC TOTAL     ACCESS:    1015431  HIT:     728560  MISS:     286871
LLC LOAD      ACCESS:      40264  HIT:      28215  MISS:      12049
LLC RFO       ACCESS:     207015  HIT:      34630  MISS:     172385
LLC PREFETCH  ACCESS:     543378  HIT:     441359  MISS:     102019
LLC WRITEBACK ACCESS:     224774  HIT:     224356  MISS:        418
LLC PREFETCH  REQUESTED:          0  ISSUED:          0  USEFUL:      10761  USELESS:      91584
LLC AVERAGE MISS LATENCY: 232.395 cycles
Major fault: 0 Minor fault: 5045
CPU 0 L1I EPI prefetcher final stats
CPU 0 L1D next line prefetcher final stats

DRAM Statistics
 CHANNEL 0
 RQ ROW_BUFFER_HIT:     101920  ROW_BUFFER_MISS:     184529
 DBUS_CONGESTED:     258347
 WQ ROW_BUFFER_HIT:      59075  ROW_BUFFER_MISS:     120050  FULL:          0

 AVG_CONGESTED_CYCLE: 6

CPU 0 Branch Prediction Accuracy: 96.8235% MPKI: 6.3409 Average ROB Occupancy at Mispredict: 67.9439

Branch types
NOT_BRANCH: 40018656 80.0373%
BRANCH_DIRECT_JUMP: 370859 0.741718%
BRANCH_INDIRECT: 83252 0.166504%
BRANCH_CONDITIONAL: 7877420 15.7548%
BRANCH_DIRECT_CALL: 722308 1.44462%
BRANCH_INDIRECT_CALL: 101901 0.203802%
BRANCH_RETURN: 825352 1.6507%
BRANCH_OTHER: 0 0%

