Initialize SIGNATURE TABLE
ST_SET: 1
ST_WAY: 256
ST_TAG_BIT: 16
ST_TAG_MASK: ffff

Initialize PATTERN TABLE
PT_SET: 512
PT_WAY: 4
SIG_DELTA_BIT: 7
C_SIG_BIT: 4
C_DELTA_BIT: 4

Initialize PREFETCH FILTER
FILTER_SET: 1024

*** ChampSim Multicore Out-of-Order Simulator ***

Warmup Instructions: 50000000
Simulation Instructions: 50000000
Number of CPUs: 1
LLC sets: 2048
LLC ways: 16
Off-chip DRAM Size: 4096 MB Channels: 1 Width: 64-bit Data Rate: 3200 MT/s

CPU 0 runs /home/yuc621/Champsim/dpc3_traces/server_018.champsimtrace.xz
CPU 0 Bimodal branch predictor
CPU 0 EPI prefetcher
CPU 0 L1D next line prefetcher
Heartbeat CPU 0 instructions: 10000003 cycles: 3616051 heartbeat IPC: 2.76545 cumulative IPC: 2.76545 (Simulation time: 0 hr 0 min 28 sec) 
Heartbeat CPU 0 instructions: 20000001 cycles: 7237360 heartbeat IPC: 2.76143 cumulative IPC: 2.76344 (Simulation time: 0 hr 0 min 55 sec) 
Heartbeat CPU 0 instructions: 30000003 cycles: 10712843 heartbeat IPC: 2.8773 cumulative IPC: 2.80038 (Simulation time: 0 hr 1 min 22 sec) 
Heartbeat CPU 0 instructions: 40000000 cycles: 14224307 heartbeat IPC: 2.84781 cumulative IPC: 2.81209 (Simulation time: 0 hr 1 min 49 sec) 
Heartbeat CPU 0 instructions: 50000003 cycles: 17840889 heartbeat IPC: 2.76504 cumulative IPC: 2.80255 (Simulation time: 0 hr 2 min 17 sec) 

Warmup complete CPU 0 instructions: 50000003 cycles: 17840889 (Simulation time: 0 hr 2 min 17 sec) 

Heartbeat CPU 0 instructions: 60000000 cycles: 35507525 heartbeat IPC: 0.566039 cumulative IPC: 0.566039 (Simulation time: 0 hr 2 min 51 sec) 
Heartbeat CPU 0 instructions: 70000001 cycles: 53392225 heartbeat IPC: 0.559137 cumulative IPC: 0.562567 (Simulation time: 0 hr 3 min 25 sec) 
Heartbeat CPU 0 instructions: 80000000 cycles: 71089568 heartbeat IPC: 0.565057 cumulative IPC: 0.563394 (Simulation time: 0 hr 4 min 0 sec) 
Heartbeat CPU 0 instructions: 90000000 cycles: 88916470 heartbeat IPC: 0.56095 cumulative IPC: 0.562781 (Simulation time: 0 hr 4 min 35 sec) 
Heartbeat CPU 0 instructions: 100000001 cycles: 106857197 heartbeat IPC: 0.557391 cumulative IPC: 0.561695 (Simulation time: 0 hr 5 min 10 sec) 
Finished CPU 0 instructions: 50000002 cycles: 89016310 cumulative IPC: 0.561695 (Simulation time: 0 hr 5 min 10 sec) 

ChampSim completed all CPUs

Region of Interest Statistics

CPU 0 cumulative IPC: 0.561695 instructions: 50000002 cycles: 89016310
L1D TOTAL     ACCESS:   19317772  HIT:   17100410  MISS:    2217362
L1D LOAD      ACCESS:    7372942  HIT:    6648412  MISS:     724530
L1D RFO       ACCESS:    5813499  HIT:    4860867  MISS:     952632
L1D PREFETCH  ACCESS:    6131331  HIT:    5591131  MISS:     540200
L1D WRITEBACK ACCESS:          0  HIT:          0  MISS:          0
L1D PREFETCH  REQUESTED:    7418527  ISSUED:    7250455  USEFUL:     200154  USELESS:     340133
L1D AVERAGE MISS LATENCY: 172.282 cycles
L1I TOTAL     ACCESS:   30874179  HIT:   28397868  MISS:    2476311
L1I LOAD      ACCESS:    9610687  HIT:    9598011  MISS:      12676
L1I RFO       ACCESS:          0  HIT:          0  MISS:          0
L1I PREFETCH  ACCESS:   21263492  HIT:   18799857  MISS:    2463635
L1I WRITEBACK ACCESS:          0  HIT:          0  MISS:          0
L1I PREFETCH  REQUESTED:   24897844  ISSUED:   24897844  USEFUL:    2303300  USELESS:     160354
L1I AVERAGE MISS LATENCY: 18.8956 cycles
L2C TOTAL     ACCESS:    6940999  HIT:    5078665  MISS:    1862334
L2C LOAD      ACCESS:     507257  HIT:     246674  MISS:     260583
L2C RFO       ACCESS:     951781  HIT:      20212  MISS:     931569
L2C PREFETCH  ACCESS:    4311933  HIT:    3643979  MISS:     667954
L2C WRITEBACK ACCESS:    1170028  HIT:    1167800  MISS:       2228
L2C PREFETCH  REQUESTED:    4071218  ISSUED:    4063009  USEFUL:      22583  USELESS:     646404
L2C AVERAGE MISS LATENCY: 209.91 cycles
LLC TOTAL     ACCESS:    4023636  HIT:    2604017  MISS:    1419619
LLC LOAD      ACCESS:     260460  HIT:     164481  MISS:      95979
LLC RFO       ACCESS:     931537  HIT:     138451  MISS:     793086
LLC PREFETCH  ACCESS:    1731272  HIT:    1202693  MISS:     528579
LLC WRITEBACK ACCESS:    1100367  HIT:    1098392  MISS:       1975
LLC PREFETCH  REQUESTED:          0  ISSUED:          0  USEFUL:      29279  USELESS:     499450
LLC AVERAGE MISS LATENCY: 275.682 cycles
Major fault: 0 Minor fault: 22444
CPU 0 L1I EPI prefetcher final stats
CPU 0 L1D next line prefetcher final stats

DRAM Statistics
 CHANNEL 0
 RQ ROW_BUFFER_HIT:     405539  ROW_BUFFER_MISS:    1011860
 DBUS_CONGESTED:    1419561
 WQ ROW_BUFFER_HIT:     258962  ROW_BUFFER_MISS:     633229  FULL:          0

 AVG_CONGESTED_CYCLE: 6

CPU 0 Branch Prediction Accuracy: 96.2915% MPKI: 6.1256 Average ROB Occupancy at Mispredict: 102.639

Branch types
NOT_BRANCH: 41740997 83.482%
BRANCH_DIRECT_JUMP: 458652 0.917304%
BRANCH_INDIRECT: 48282 0.096564%
BRANCH_CONDITIONAL: 5930880 11.8618%
BRANCH_DIRECT_CALL: 744230 1.48846%
BRANCH_INDIRECT_CALL: 166336 0.332672%
BRANCH_RETURN: 910589 1.82118%
BRANCH_OTHER: 0 0%

