Initialize SIGNATURE TABLE
ST_SET: 1
ST_WAY: 256
ST_TAG_BIT: 16
ST_TAG_MASK: ffff

Initialize PATTERN TABLE
PT_SET: 512
PT_WAY: 4
SIG_DELTA_BIT: 7
C_SIG_BIT: 4
C_DELTA_BIT: 4

Initialize PREFETCH FILTER
FILTER_SET: 1024

*** ChampSim Multicore Out-of-Order Simulator ***

Warmup Instructions: 50000000
Simulation Instructions: 50000000
Number of CPUs: 1
LLC sets: 2048
LLC ways: 16
Off-chip DRAM Size: 4096 MB Channels: 1 Width: 64-bit Data Rate: 3200 MT/s

CPU 0 runs /home/yuc621/Champsim/dpc3_traces/server_036.champsimtrace.xz
CPU 0 Bimodal branch predictor
CPU 0 EPI prefetcher
CPU 0 L1D next line prefetcher
Heartbeat CPU 0 instructions: 10000000 cycles: 3459003 heartbeat IPC: 2.89101 cumulative IPC: 2.89101 (Simulation time: 0 hr 0 min 29 sec) 
Heartbeat CPU 0 instructions: 20000000 cycles: 6924800 heartbeat IPC: 2.88534 cumulative IPC: 2.88817 (Simulation time: 0 hr 0 min 58 sec) 
Heartbeat CPU 0 instructions: 30000003 cycles: 10433007 heartbeat IPC: 2.85046 cumulative IPC: 2.87549 (Simulation time: 0 hr 1 min 28 sec) 
Heartbeat CPU 0 instructions: 40000000 cycles: 13895486 heartbeat IPC: 2.8881 cumulative IPC: 2.87863 (Simulation time: 0 hr 1 min 58 sec) 
Heartbeat CPU 0 instructions: 50000002 cycles: 17357189 heartbeat IPC: 2.88875 cumulative IPC: 2.88065 (Simulation time: 0 hr 2 min 29 sec) 

Warmup complete CPU 0 instructions: 50000002 cycles: 17357189 (Simulation time: 0 hr 2 min 29 sec) 

Heartbeat CPU 0 instructions: 60000000 cycles: 23539621 heartbeat IPC: 1.61749 cumulative IPC: 1.61749 (Simulation time: 0 hr 2 min 55 sec) 
Heartbeat CPU 0 instructions: 70000001 cycles: 29669900 heartbeat IPC: 1.63125 cumulative IPC: 1.62434 (Simulation time: 0 hr 3 min 21 sec) 
Heartbeat CPU 0 instructions: 80000001 cycles: 35823326 heartbeat IPC: 1.62511 cumulative IPC: 1.6246 (Simulation time: 0 hr 3 min 47 sec) 
Heartbeat CPU 0 instructions: 90000002 cycles: 41972479 heartbeat IPC: 1.62624 cumulative IPC: 1.62501 (Simulation time: 0 hr 4 min 14 sec) 
Heartbeat CPU 0 instructions: 100000001 cycles: 48119583 heartbeat IPC: 1.62678 cumulative IPC: 1.62536 (Simulation time: 0 hr 4 min 40 sec) 
Finished CPU 0 instructions: 50000003 cycles: 30762395 cumulative IPC: 1.62536 (Simulation time: 0 hr 4 min 40 sec) 

ChampSim completed all CPUs

Region of Interest Statistics

CPU 0 cumulative IPC: 1.62536 instructions: 50000003 cycles: 30762395
L1D TOTAL     ACCESS:   21724644  HIT:   21664161  MISS:      60483
L1D LOAD      ACCESS:    7258495  HIT:    7223488  MISS:      35007
L1D RFO       ACCESS:    7372089  HIT:    7364823  MISS:       7266
L1D PREFETCH  ACCESS:    7094060  HIT:    7075850  MISS:      18210
L1D WRITEBACK ACCESS:          0  HIT:          0  MISS:          0
L1D PREFETCH  REQUESTED:    7259551  ISSUED:    7119280  USEFUL:       5463  USELESS:      12748
L1D AVERAGE MISS LATENCY: 17.937 cycles
L1I TOTAL     ACCESS:   42479220  HIT:   38255470  MISS:    4223750
L1I LOAD      ACCESS:    8910387  HIT:    8880383  MISS:      30004
L1I RFO       ACCESS:          0  HIT:          0  MISS:          0
L1I PREFETCH  ACCESS:   33568833  HIT:   29375087  MISS:    4193746
L1I WRITEBACK ACCESS:          0  HIT:          0  MISS:          0
L1I PREFETCH  REQUESTED:   41047494  ISSUED:   41047494  USEFUL:    3733844  USELESS:     459898
L1I AVERAGE MISS LATENCY: 14.6506 cycles
L2C TOTAL     ACCESS:    6757875  HIT:    6755610  MISS:       2265
L2C LOAD      ACCESS:      57112  HIT:      56792  MISS:        320
L2C RFO       ACCESS:       7260  HIT:       7199  MISS:         61
L2C PREFETCH  ACCESS:    6677864  HIT:    6676013  MISS:       1851
L2C WRITEBACK ACCESS:      15639  HIT:      15606  MISS:         33
L2C PREFETCH  REQUESTED:    5654038  ISSUED:    5652882  USEFUL:        151  USELESS:       1034
L2C AVERAGE MISS LATENCY: 164.593 cycles
LLC TOTAL     ACCESS:     419983  HIT:     417521  MISS:       2462
LLC LOAD      ACCESS:        320  HIT:        102  MISS:        218
LLC RFO       ACCESS:         61  HIT:         32  MISS:         29
LLC PREFETCH  ACCESS:     418579  HIT:     416371  MISS:       2208
LLC WRITEBACK ACCESS:       1023  HIT:       1016  MISS:          7
LLC PREFETCH  REQUESTED:          0  ISSUED:          0  USEFUL:         42  USELESS:        438
LLC AVERAGE MISS LATENCY: 300.514 cycles
Major fault: 0 Minor fault: 1927
CPU 0 L1I EPI prefetcher final stats
CPU 0 L1D next line prefetcher final stats

DRAM Statistics
 CHANNEL 0
 RQ ROW_BUFFER_HIT:        547  ROW_BUFFER_MISS:       1908
 DBUS_CONGESTED:       1595
 WQ ROW_BUFFER_HIT:        271  ROW_BUFFER_MISS:       1439  FULL:          0

 AVG_CONGESTED_CYCLE: 6

CPU 0 Branch Prediction Accuracy: 96.3055% MPKI: 6.09676 Average ROB Occupancy at Mispredict: 65.0714

Branch types
NOT_BRANCH: 41748418 83.4968%
BRANCH_DIRECT_JUMP: 468563 0.937126%
BRANCH_INDIRECT: 0 0%
BRANCH_CONDITIONAL: 5599748 11.1995%
BRANCH_DIRECT_CALL: 885105 1.77021%
BRANCH_INDIRECT_CALL: 206338 0.412676%
BRANCH_RETURN: 1091467 2.18293%
BRANCH_OTHER: 0 0%

