Initialize SIGNATURE TABLE
ST_SET: 1
ST_WAY: 256
ST_TAG_BIT: 16
ST_TAG_MASK: ffff

Initialize PATTERN TABLE
PT_SET: 512
PT_WAY: 4
SIG_DELTA_BIT: 7
C_SIG_BIT: 4
C_DELTA_BIT: 4

Initialize PREFETCH FILTER
FILTER_SET: 1024

*** ChampSim Multicore Out-of-Order Simulator ***

Warmup Instructions: 50000000
Simulation Instructions: 50000000
Number of CPUs: 1
LLC sets: 2048
LLC ways: 16
Off-chip DRAM Size: 4096 MB Channels: 1 Width: 64-bit Data Rate: 3200 MT/s

CPU 0 runs /home/yuc621/Champsim/dpc3_traces/spec_perlbench_001.champsimtrace.xz
CPU 0 Bimodal branch predictor
CPU 0 EPI prefetcher
CPU 0 L1D next line prefetcher
Heartbeat CPU 0 instructions: 10000000 cycles: 3276255 heartbeat IPC: 3.05227 cumulative IPC: 3.05227 (Simulation time: 0 hr 0 min 25 sec) 
Heartbeat CPU 0 instructions: 20000000 cycles: 6541748 heartbeat IPC: 3.06232 cumulative IPC: 3.05729 (Simulation time: 0 hr 0 min 53 sec) 
Heartbeat CPU 0 instructions: 30000002 cycles: 9859843 heartbeat IPC: 3.01378 cumulative IPC: 3.04264 (Simulation time: 0 hr 1 min 23 sec) 
Heartbeat CPU 0 instructions: 40000002 cycles: 13115751 heartbeat IPC: 3.07134 cumulative IPC: 3.04977 (Simulation time: 0 hr 1 min 50 sec) 
Heartbeat CPU 0 instructions: 50000001 cycles: 16389694 heartbeat IPC: 3.05442 cumulative IPC: 3.0507 (Simulation time: 0 hr 2 min 17 sec) 

Warmup complete CPU 0 instructions: 50000001 cycles: 16389694 (Simulation time: 0 hr 2 min 17 sec) 

Heartbeat CPU 0 instructions: 60000001 cycles: 25211774 heartbeat IPC: 1.13352 cumulative IPC: 1.13352 (Simulation time: 0 hr 2 min 43 sec) 
Heartbeat CPU 0 instructions: 70000000 cycles: 33919593 heartbeat IPC: 1.14839 cumulative IPC: 1.14091 (Simulation time: 0 hr 3 min 10 sec) 
Heartbeat CPU 0 instructions: 80000000 cycles: 42940764 heartbeat IPC: 1.1085 cumulative IPC: 1.1299 (Simulation time: 0 hr 3 min 35 sec) 
Heartbeat CPU 0 instructions: 90000003 cycles: 49210483 heartbeat IPC: 1.59497 cumulative IPC: 1.21874 (Simulation time: 0 hr 3 min 58 sec) 
Heartbeat CPU 0 instructions: 100000002 cycles: 55565448 heartbeat IPC: 1.57357 cumulative IPC: 1.2763 (Simulation time: 0 hr 4 min 21 sec) 
Finished CPU 0 instructions: 50000001 cycles: 39175754 cumulative IPC: 1.2763 (Simulation time: 0 hr 4 min 21 sec) 

ChampSim completed all CPUs

Region of Interest Statistics

CPU 0 cumulative IPC: 1.2763 instructions: 50000001 cycles: 39175754
L1D TOTAL     ACCESS:   21421398  HIT:   21006287  MISS:     415111
L1D LOAD      ACCESS:    7526152  HIT:    7312876  MISS:     213276
L1D RFO       ACCESS:    6557751  HIT:    6539221  MISS:      18530
L1D PREFETCH  ACCESS:    7337495  HIT:    7154190  MISS:     183305
L1D WRITEBACK ACCESS:          0  HIT:          0  MISS:          0
L1D PREFETCH  REQUESTED:    7545892  ISSUED:    7432607  USEFUL:      55604  USELESS:     127696
L1D AVERAGE MISS LATENCY: 57.8548 cycles
L1I TOTAL     ACCESS:   43942131  HIT:   43149689  MISS:     792442
L1I LOAD      ACCESS:    9086035  HIT:    9048153  MISS:      37882
L1I RFO       ACCESS:          0  HIT:          0  MISS:          0
L1I PREFETCH  ACCESS:   34856096  HIT:   34101536  MISS:     754560
L1I WRITEBACK ACCESS:          0  HIT:          0  MISS:          0
L1I PREFETCH  REQUESTED:   47227514  ISSUED:   47227514  USEFUL:     431257  USELESS:     323358
L1I AVERAGE MISS LATENCY: 16.9185 cycles
L2C TOTAL     ACCESS:    1702185  HIT:    1533488  MISS:     168697
L2C LOAD      ACCESS:     232704  HIT:     154486  MISS:      78218
L2C RFO       ACCESS:      18306  HIT:      12888  MISS:       5418
L2C PREFETCH  ACCESS:    1372272  HIT:    1287600  MISS:      84672
L2C WRITEBACK ACCESS:      78903  HIT:      78514  MISS:        389
L2C PREFETCH  REQUESTED:    1247552  ISSUED:    1247517  USEFUL:       5946  USELESS:      78677
L2C AVERAGE MISS LATENCY: 118.716 cycles
LLC TOTAL     ACCESS:     429125  HIT:     285450  MISS:     143675
LLC LOAD      ACCESS:      78217  HIT:      30558  MISS:      47659
LLC RFO       ACCESS:       5418  HIT:       2391  MISS:       3027
LLC PREFETCH  ACCESS:     319937  HIT:     227433  MISS:      92504
LLC WRITEBACK ACCESS:      25553  HIT:      25068  MISS:        485
LLC PREFETCH  REQUESTED:          0  ISSUED:          0  USEFUL:      14442  USELESS:      77864
LLC AVERAGE MISS LATENCY: 160.23 cycles
Major fault: 0 Minor fault: 6367
CPU 0 L1I EPI prefetcher final stats
CPU 0 L1D next line prefetcher final stats

DRAM Statistics
 CHANNEL 0
 RQ ROW_BUFFER_HIT:      33151  ROW_BUFFER_MISS:     110036
 DBUS_CONGESTED:      59617
 WQ ROW_BUFFER_HIT:       3943  ROW_BUFFER_MISS:      13500  FULL:          0

 AVG_CONGESTED_CYCLE: 4

CPU 0 Branch Prediction Accuracy: 95.0896% MPKI: 9.66922 Average ROB Occupancy at Mispredict: 55.125

Branch types
NOT_BRANCH: 40154100 80.3082%
BRANCH_DIRECT_JUMP: 817094 1.63419%
BRANCH_INDIRECT: 303787 0.607574%
BRANCH_CONDITIONAL: 7492103 14.9842%
BRANCH_DIRECT_CALL: 471777 0.943554%
BRANCH_INDIRECT_CALL: 144546 0.289092%
BRANCH_RETURN: 616324 1.23265%
BRANCH_OTHER: 0 0%

