Initialize SIGNATURE TABLE
ST_SET: 1
ST_WAY: 256
ST_TAG_BIT: 16
ST_TAG_MASK: ffff

Initialize PATTERN TABLE
PT_SET: 512
PT_WAY: 4
SIG_DELTA_BIT: 7
C_SIG_BIT: 4
C_DELTA_BIT: 4

Initialize PREFETCH FILTER
FILTER_SET: 1024

*** ChampSim Multicore Out-of-Order Simulator ***

Warmup Instructions: 50000000
Simulation Instructions: 50000000
Number of CPUs: 1
LLC sets: 2048
LLC ways: 16
Off-chip DRAM Size: 4096 MB Channels: 1 Width: 64-bit Data Rate: 3200 MT/s

CPU 0 runs /home/yuc621/Champsim/dpc3_traces/spec_gcc_001.champsimtrace.xz
CPU 0 Bimodal branch predictor
CPU 0 EPI prefetcher
CPU 0 L1D next line prefetcher
Heartbeat CPU 0 instructions: 10000003 cycles: 3219446 heartbeat IPC: 3.10613 cumulative IPC: 3.10613 (Simulation time: 0 hr 0 min 26 sec) 
Heartbeat CPU 0 instructions: 20000002 cycles: 6464210 heartbeat IPC: 3.08189 cumulative IPC: 3.09396 (Simulation time: 0 hr 0 min 53 sec) 
Heartbeat CPU 0 instructions: 30000000 cycles: 9666270 heartbeat IPC: 3.12299 cumulative IPC: 3.10358 (Simulation time: 0 hr 1 min 20 sec) 
Heartbeat CPU 0 instructions: 40000001 cycles: 12906512 heartbeat IPC: 3.08619 cumulative IPC: 3.09921 (Simulation time: 0 hr 1 min 46 sec) 
Heartbeat CPU 0 instructions: 50000001 cycles: 16147047 heartbeat IPC: 3.08591 cumulative IPC: 3.09654 (Simulation time: 0 hr 2 min 13 sec) 

Warmup complete CPU 0 instructions: 50000001 cycles: 16147047 (Simulation time: 0 hr 2 min 13 sec) 

Heartbeat CPU 0 instructions: 60000000 cycles: 24337304 heartbeat IPC: 1.22096 cumulative IPC: 1.22096 (Simulation time: 0 hr 2 min 36 sec) 
Heartbeat CPU 0 instructions: 70000003 cycles: 32653581 heartbeat IPC: 1.20246 cumulative IPC: 1.21164 (Simulation time: 0 hr 3 min 0 sec) 
Heartbeat CPU 0 instructions: 80000000 cycles: 40810345 heartbeat IPC: 1.22598 cumulative IPC: 1.21638 (Simulation time: 0 hr 3 min 23 sec) 
Heartbeat CPU 0 instructions: 90000001 cycles: 49190798 heartbeat IPC: 1.19325 cumulative IPC: 1.21052 (Simulation time: 0 hr 3 min 46 sec) 
Heartbeat CPU 0 instructions: 100000000 cycles: 57777548 heartbeat IPC: 1.16458 cumulative IPC: 1.20104 (Simulation time: 0 hr 4 min 10 sec) 
Finished CPU 0 instructions: 50000000 cycles: 41630505 cumulative IPC: 1.20104 (Simulation time: 0 hr 4 min 10 sec) 

ChampSim completed all CPUs

Region of Interest Statistics

CPU 0 cumulative IPC: 1.20104 instructions: 50000000 cycles: 41630505
L1D TOTAL     ACCESS:   19855883  HIT:   18750693  MISS:    1105190
L1D LOAD      ACCESS:    7494965  HIT:    7017346  MISS:     477619
L1D RFO       ACCESS:    5127835  HIT:    5047887  MISS:      79948
L1D PREFETCH  ACCESS:    7233083  HIT:    6685460  MISS:     547623
L1D WRITEBACK ACCESS:          0  HIT:          0  MISS:          0
L1D PREFETCH  REQUESTED:    7538650  ISSUED:    7435587  USEFUL:     277413  USELESS:     270222
L1D AVERAGE MISS LATENCY: 25.7026 cycles
L1I TOTAL     ACCESS:   34326093  HIT:   33768314  MISS:     557779
L1I LOAD      ACCESS:    9339728  HIT:    9299194  MISS:      40534
L1I RFO       ACCESS:          0  HIT:          0  MISS:          0
L1I PREFETCH  ACCESS:   24986365  HIT:   24469120  MISS:     517245
L1I WRITEBACK ACCESS:          0  HIT:          0  MISS:          0
L1I PREFETCH  REQUESTED:   30988667  ISSUED:   30988667  USEFUL:     329351  USELESS:     187905
L1I AVERAGE MISS LATENCY: 20.0727 cycles
L2C TOTAL     ACCESS:    2795036  HIT:    2538974  MISS:     256062
L2C LOAD      ACCESS:     480728  HIT:     399367  MISS:      81361
L2C RFO       ACCESS:      75149  HIT:      36615  MISS:      38534
L2C PREFETCH  ACCESS:    1985369  HIT:    1849693  MISS:     135676
L2C WRITEBACK ACCESS:     253790  HIT:     253299  MISS:        491
L2C PREFETCH  REQUESTED:    1909697  ISSUED:    1909444  USEFUL:      31496  USELESS:     103605
L2C AVERAGE MISS LATENCY: 62.9422 cycles
LLC TOTAL     ACCESS:     667916  HIT:     594865  MISS:      73051
LLC LOAD      ACCESS:      81175  HIT:      70602  MISS:      10573
LLC RFO       ACCESS:      38533  HIT:      17746  MISS:      20787
LLC PREFETCH  ACCESS:     455461  HIT:     414859  MISS:      40602
LLC WRITEBACK ACCESS:      92747  HIT:      91658  MISS:       1089
LLC PREFETCH  REQUESTED:          0  ISSUED:          0  USEFUL:      13287  USELESS:      26825
LLC AVERAGE MISS LATENCY: 185.218 cycles
Major fault: 0 Minor fault: 6869
CPU 0 L1I EPI prefetcher final stats
CPU 0 L1D next line prefetcher final stats

DRAM Statistics
 CHANNEL 0
 RQ ROW_BUFFER_HIT:      19770  ROW_BUFFER_MISS:      52188
 DBUS_CONGESTED:      38142
 WQ ROW_BUFFER_HIT:       4264  ROW_BUFFER_MISS:      23646  FULL:          0

 AVG_CONGESTED_CYCLE: 6

CPU 0 Branch Prediction Accuracy: 92.4925% MPKI: 17.6569 Average ROB Occupancy at Mispredict: 59.065

Branch types
NOT_BRANCH: 38240115 76.4802%
BRANCH_DIRECT_JUMP: 653297 1.30659%
BRANCH_INDIRECT: 37098 0.074196%
BRANCH_CONDITIONAL: 8897823 17.7956%
BRANCH_DIRECT_CALL: 992620 1.98524%
BRANCH_INDIRECT_CALL: 93046 0.186092%
BRANCH_RETURN: 1085674 2.17135%
BRANCH_OTHER: 0 0%

