Initialize SIGNATURE TABLE
ST_SET: 1
ST_WAY: 256
ST_TAG_BIT: 16
ST_TAG_MASK: ffff

Initialize PATTERN TABLE
PT_SET: 512
PT_WAY: 4
SIG_DELTA_BIT: 7
C_SIG_BIT: 4
C_DELTA_BIT: 4

Initialize PREFETCH FILTER
FILTER_SET: 1024

*** ChampSim Multicore Out-of-Order Simulator ***

Warmup Instructions: 50000000
Simulation Instructions: 50000000
Number of CPUs: 1
LLC sets: 2048
LLC ways: 16
Off-chip DRAM Size: 4096 MB Channels: 1 Width: 64-bit Data Rate: 3200 MT/s

CPU 0 runs /home/xuf220/ChampSim/dpc3_traces/client_003.champsimtrace.xz
CPU 0 Bimodal branch predictor
CPU 0 EPI prefetcher
CPU 0 L1D next line prefetcher
Heartbeat CPU 0 instructions: 10000000 cycles: 3478716 heartbeat IPC: 2.87462 cumulative IPC: 2.87462 (Simulation time: 0 hr 0 min 26 sec) 
Heartbeat CPU 0 instructions: 20000002 cycles: 6933724 heartbeat IPC: 2.89435 cumulative IPC: 2.88445 (Simulation time: 0 hr 0 min 53 sec) 
Heartbeat CPU 0 instructions: 30000003 cycles: 10494994 heartbeat IPC: 2.80799 cumulative IPC: 2.85851 (Simulation time: 0 hr 1 min 21 sec) 
Heartbeat CPU 0 instructions: 40000001 cycles: 14111738 heartbeat IPC: 2.76492 cumulative IPC: 2.83452 (Simulation time: 0 hr 1 min 49 sec) 
Heartbeat CPU 0 instructions: 50000003 cycles: 17657110 heartbeat IPC: 2.82058 cumulative IPC: 2.83172 (Simulation time: 0 hr 2 min 16 sec) 

Warmup complete CPU 0 instructions: 50000003 cycles: 17657110 (Simulation time: 0 hr 2 min 16 sec) 

Heartbeat CPU 0 instructions: 60000002 cycles: 24277416 heartbeat IPC: 1.5105 cumulative IPC: 1.5105 (Simulation time: 0 hr 2 min 41 sec) 
Heartbeat CPU 0 instructions: 70000001 cycles: 30733563 heartbeat IPC: 1.54891 cumulative IPC: 1.52947 (Simulation time: 0 hr 3 min 7 sec) 
Heartbeat CPU 0 instructions: 80000000 cycles: 37938412 heartbeat IPC: 1.38795 cumulative IPC: 1.47919 (Simulation time: 0 hr 3 min 31 sec) 
Heartbeat CPU 0 instructions: 90000000 cycles: 47006958 heartbeat IPC: 1.10271 cumulative IPC: 1.36287 (Simulation time: 0 hr 3 min 48 sec) 
Heartbeat CPU 0 instructions: 100000003 cycles: 57887809 heartbeat IPC: 0.919046 cumulative IPC: 1.24283 (Simulation time: 0 hr 4 min 7 sec) 
Finished CPU 0 instructions: 50000000 cycles: 40230699 cumulative IPC: 1.24283 (Simulation time: 0 hr 4 min 7 sec) 

ChampSim completed all CPUs

Region of Interest Statistics

CPU 0 cumulative IPC: 1.24283 instructions: 50000000 cycles: 40230699
L1D TOTAL     ACCESS:   18000193  HIT:   17504031  MISS:     496162
L1D LOAD      ACCESS:    6221156  HIT:    6094466  MISS:     126690
L1D RFO       ACCESS:    5953823  HIT:    5719551  MISS:     234272
L1D PREFETCH  ACCESS:    5825214  HIT:    5690014  MISS:     135200
L1D WRITEBACK ACCESS:          0  HIT:          0  MISS:          0
L1D PREFETCH  REQUESTED:    6263154  ISSUED:    6118556  USEFUL:      67140  USELESS:      68107
L1D AVERAGE MISS LATENCY: 121.508 cycles
L1I TOTAL     ACCESS:   31853655  HIT:   30937577  MISS:     916078
L1I LOAD      ACCESS:    9427573  HIT:    9372202  MISS:      55371
L1I RFO       ACCESS:          0  HIT:          0  MISS:          0
L1I PREFETCH  ACCESS:   22426082  HIT:   21565375  MISS:     860707
L1I WRITEBACK ACCESS:          0  HIT:          0  MISS:          0
L1I PREFETCH  REQUESTED:   29319425  ISSUED:   29319425  USEFUL:     526715  USELESS:     334054
L1I AVERAGE MISS LATENCY: 20.1747 cycles
L2C TOTAL     ACCESS:    2120076  HIT:    1718446  MISS:     401630
L2C LOAD      ACCESS:     133314  HIT:      91933  MISS:      41381
L2C RFO       ACCESS:     232269  HIT:      25614  MISS:     206655
L2C PREFETCH  ACCESS:    1485205  HIT:    1332846  MISS:     152359
L2C WRITEBACK ACCESS:     269288  HIT:     268053  MISS:       1235
L2C PREFETCH  REQUESTED:    1498871  ISSUED:    1498327  USEFUL:      10893  USELESS:     141405
L2C AVERAGE MISS LATENCY: 165.335 cycles
LLC TOTAL     ACCESS:    1008591  HIT:     722502  MISS:     286089
LLC LOAD      ACCESS:      41272  HIT:      28623  MISS:      12649
LLC RFO       ACCESS:     206650  HIT:      34577  MISS:     172073
LLC PREFETCH  ACCESS:     536389  HIT:     435418  MISS:     100971
LLC WRITEBACK ACCESS:     224280  HIT:     223884  MISS:        396
LLC PREFETCH  REQUESTED:          0  ISSUED:          0  USEFUL:      11256  USELESS:      89702
LLC AVERAGE MISS LATENCY: 231.481 cycles
Major fault: 0 Minor fault: 5044
CPU 0 L1I EPI prefetcher final stats
CPU 0 L1D next line prefetcher final stats

DRAM Statistics
 CHANNEL 0
 RQ ROW_BUFFER_HIT:     101467  ROW_BUFFER_MISS:     184214
 DBUS_CONGESTED:     257823
 WQ ROW_BUFFER_HIT:      59389  ROW_BUFFER_MISS:     119556  FULL:          0

 AVG_CONGESTED_CYCLE: 6

CPU 0 Branch Prediction Accuracy: 96.8235% MPKI: 6.3409 Average ROB Occupancy at Mispredict: 67.7582

Branch types
NOT_BRANCH: 40018656 80.0373%
BRANCH_DIRECT_JUMP: 370859 0.741718%
BRANCH_INDIRECT: 83252 0.166504%
BRANCH_CONDITIONAL: 7877420 15.7548%
BRANCH_DIRECT_CALL: 722308 1.44462%
BRANCH_INDIRECT_CALL: 101901 0.203802%
BRANCH_RETURN: 825352 1.6507%
BRANCH_OTHER: 0 0%

