Initialize SIGNATURE TABLE
ST_SET: 1
ST_WAY: 256
ST_TAG_BIT: 16
ST_TAG_MASK: ffff

Initialize PATTERN TABLE
PT_SET: 512
PT_WAY: 4
SIG_DELTA_BIT: 7
C_SIG_BIT: 4
C_DELTA_BIT: 4

Initialize PREFETCH FILTER
FILTER_SET: 1024

*** ChampSim Multicore Out-of-Order Simulator ***

Warmup Instructions: 50000000
Simulation Instructions: 50000000
Number of CPUs: 1
LLC sets: 2048
LLC ways: 16
Off-chip DRAM Size: 4096 MB Channels: 1 Width: 64-bit Data Rate: 3200 MT/s

CPU 0 runs /home/xuf220/ChampSim/dpc3_traces/client_008.champsimtrace.xz
CPU 0 Bimodal branch predictor
CPU 0 EPI prefetcher
CPU 0 L1D next line prefetcher
Heartbeat CPU 0 instructions: 10000001 cycles: 3751494 heartbeat IPC: 2.66561 cumulative IPC: 2.66561 (Simulation time: 0 hr 0 min 26 sec) 
Heartbeat CPU 0 instructions: 20000001 cycles: 7524244 heartbeat IPC: 2.65059 cumulative IPC: 2.65807 (Simulation time: 0 hr 0 min 53 sec) 
Heartbeat CPU 0 instructions: 30000000 cycles: 11248630 heartbeat IPC: 2.68501 cumulative IPC: 2.66699 (Simulation time: 0 hr 1 min 20 sec) 
Heartbeat CPU 0 instructions: 40000002 cycles: 15039754 heartbeat IPC: 2.63774 cumulative IPC: 2.65962 (Simulation time: 0 hr 1 min 47 sec) 
Heartbeat CPU 0 instructions: 50000003 cycles: 18828215 heartbeat IPC: 2.63959 cumulative IPC: 2.65559 (Simulation time: 0 hr 2 min 15 sec) 

Warmup complete CPU 0 instructions: 50000003 cycles: 18828215 (Simulation time: 0 hr 2 min 15 sec) 

Heartbeat CPU 0 instructions: 60000000 cycles: 27588990 heartbeat IPC: 1.14145 cumulative IPC: 1.14145 (Simulation time: 0 hr 2 min 41 sec) 
Heartbeat CPU 0 instructions: 70000000 cycles: 35994550 heartbeat IPC: 1.18969 cumulative IPC: 1.16507 (Simulation time: 0 hr 3 min 8 sec) 
Heartbeat CPU 0 instructions: 80000000 cycles: 45374436 heartbeat IPC: 1.06611 cumulative IPC: 1.1301 (Simulation time: 0 hr 3 min 31 sec) 
Heartbeat CPU 0 instructions: 90000001 cycles: 53284814 heartbeat IPC: 1.26416 cumulative IPC: 1.16088 (Simulation time: 0 hr 3 min 53 sec) 
Heartbeat CPU 0 instructions: 100000001 cycles: 62199754 heartbeat IPC: 1.12171 cumulative IPC: 1.15283 (Simulation time: 0 hr 4 min 14 sec) 
Finished CPU 0 instructions: 50000002 cycles: 43371540 cumulative IPC: 1.15283 (Simulation time: 0 hr 4 min 14 sec) 

ChampSim completed all CPUs

Region of Interest Statistics

CPU 0 cumulative IPC: 1.15283 instructions: 50000002 cycles: 43371540
L1D TOTAL     ACCESS:   21355290  HIT:   19725122  MISS:    1630168
L1D LOAD      ACCESS:    8484590  HIT:    7689517  MISS:     795073
L1D RFO       ACCESS:    4848738  HIT:    4739817  MISS:     108921
L1D PREFETCH  ACCESS:    8021962  HIT:    7295788  MISS:     726174
L1D WRITEBACK ACCESS:          0  HIT:          0  MISS:          0
L1D PREFETCH  REQUESTED:    8564909  ISSUED:    8395036  USEFUL:     205232  USELESS:     520947
L1D AVERAGE MISS LATENCY: 32.1948 cycles
L1I TOTAL     ACCESS:   33852260  HIT:   32892605  MISS:     959655
L1I LOAD      ACCESS:    9621466  HIT:    9601317  MISS:      20149
L1I RFO       ACCESS:          0  HIT:          0  MISS:          0
L1I PREFETCH  ACCESS:   24230794  HIT:   23291288  MISS:     939506
L1I WRITEBACK ACCESS:          0  HIT:          0  MISS:          0
L1I PREFETCH  REQUESTED:   29963959  ISSUED:   29963959  USEFUL:     725066  USELESS:     214532
L1I AVERAGE MISS LATENCY: 18.4102 cycles
L2C TOTAL     ACCESS:    3651300  HIT:    3199364  MISS:     451936
L2C LOAD      ACCESS:     758299  HIT:     598676  MISS:     159623
L2C RFO       ACCESS:     103802  HIT:      18095  MISS:      85707
L2C PREFETCH  ACCESS:    2607221  HIT:    2401083  MISS:     206138
L2C WRITEBACK ACCESS:     181978  HIT:     181510  MISS:        468
L2C PREFETCH  REQUESTED:    3049089  ISSUED:    3042390  USEFUL:      17770  USELESS:     190475
L2C AVERAGE MISS LATENCY: 75.5571 cycles
LLC TOTAL     ACCESS:    1370137  HIT:    1188612  MISS:     181525
LLC LOAD      ACCESS:     159534  HIT:     139040  MISS:      20494
LLC RFO       ACCESS:      85702  HIT:      16789  MISS:      68913
LLC PREFETCH  ACCESS:     989264  HIT:     897538  MISS:      91726
LLC WRITEBACK ACCESS:     135637  HIT:     135245  MISS:        392
LLC PREFETCH  REQUESTED:          0  ISSUED:          0  USEFUL:      24509  USELESS:      75237
LLC AVERAGE MISS LATENCY: 165.752 cycles
Major fault: 0 Minor fault: 5305
CPU 0 L1I EPI prefetcher final stats
CPU 0 L1D next line prefetcher final stats

DRAM Statistics
 CHANNEL 0
 RQ ROW_BUFFER_HIT:      53565  ROW_BUFFER_MISS:     127553
 DBUS_CONGESTED:      97561
 WQ ROW_BUFFER_HIT:      23158  ROW_BUFFER_MISS:      66853  FULL:          0

 AVG_CONGESTED_CYCLE: 6

CPU 0 Branch Prediction Accuracy: 95.4044% MPKI: 10.7264 Average ROB Occupancy at Mispredict: 77.1046

Branch types
NOT_BRANCH: 38329412 76.6588%
BRANCH_DIRECT_JUMP: 510116 1.02023%
BRANCH_INDIRECT: 225730 0.45146%
BRANCH_CONDITIONAL: 8366692 16.7334%
BRANCH_DIRECT_CALL: 600745 1.20149%
BRANCH_INDIRECT_CALL: 682990 1.36598%
BRANCH_RETURN: 1283970 2.56794%
BRANCH_OTHER: 0 0%

