Initialize SIGNATURE TABLE
ST_SET: 1
ST_WAY: 256
ST_TAG_BIT: 16
ST_TAG_MASK: ffff

Initialize PATTERN TABLE
PT_SET: 512
PT_WAY: 4
SIG_DELTA_BIT: 7
C_SIG_BIT: 4
C_DELTA_BIT: 4

Initialize PREFETCH FILTER
FILTER_SET: 1024

*** ChampSim Multicore Out-of-Order Simulator ***

Warmup Instructions: 50000000
Simulation Instructions: 50000000
Number of CPUs: 1
LLC sets: 2048
LLC ways: 16
Off-chip DRAM Size: 4096 MB Channels: 1 Width: 64-bit Data Rate: 3200 MT/s

CPU 0 runs /home/xuf220/ChampSim/dpc3_traces/client_002.champsimtrace.xz
CPU 0 Bimodal branch predictor
CPU 0 EPI prefetcher
CPU 0 L1D next line prefetcher
Heartbeat CPU 0 instructions: 10000000 cycles: 3405084 heartbeat IPC: 2.93679 cumulative IPC: 2.93679 (Simulation time: 0 hr 0 min 25 sec) 
Heartbeat CPU 0 instructions: 20000002 cycles: 6860826 heartbeat IPC: 2.89374 cumulative IPC: 2.9151 (Simulation time: 0 hr 0 min 51 sec) 
Heartbeat CPU 0 instructions: 30000001 cycles: 10293746 heartbeat IPC: 2.91297 cumulative IPC: 2.91439 (Simulation time: 0 hr 1 min 16 sec) 
Heartbeat CPU 0 instructions: 40000002 cycles: 13726637 heartbeat IPC: 2.913 cumulative IPC: 2.91404 (Simulation time: 0 hr 1 min 43 sec) 
Heartbeat CPU 0 instructions: 50000002 cycles: 17167543 heartbeat IPC: 2.90621 cumulative IPC: 2.91247 (Simulation time: 0 hr 2 min 9 sec) 

Warmup complete CPU 0 instructions: 50000002 cycles: 17167543 (Simulation time: 0 hr 2 min 9 sec) 

Heartbeat CPU 0 instructions: 60000002 cycles: 23865858 heartbeat IPC: 1.49291 cumulative IPC: 1.49291 (Simulation time: 0 hr 2 min 32 sec) 
Heartbeat CPU 0 instructions: 70000001 cycles: 30645493 heartbeat IPC: 1.47501 cumulative IPC: 1.48391 (Simulation time: 0 hr 2 min 54 sec) 
Heartbeat CPU 0 instructions: 80000003 cycles: 37231499 heartbeat IPC: 1.51837 cumulative IPC: 1.49522 (Simulation time: 0 hr 3 min 17 sec) 
Heartbeat CPU 0 instructions: 90000001 cycles: 44347696 heartbeat IPC: 1.40524 cumulative IPC: 1.47166 (Simulation time: 0 hr 3 min 39 sec) 
Heartbeat CPU 0 instructions: 100000003 cycles: 51006717 heartbeat IPC: 1.50172 cumulative IPC: 1.47758 (Simulation time: 0 hr 4 min 2 sec) 
Finished CPU 0 instructions: 50000001 cycles: 33839174 cumulative IPC: 1.47758 (Simulation time: 0 hr 4 min 2 sec) 

ChampSim completed all CPUs

Region of Interest Statistics

CPU 0 cumulative IPC: 1.47758 instructions: 50000001 cycles: 33839174
L1D TOTAL     ACCESS:   20024259  HIT:   19684832  MISS:     339427
L1D LOAD      ACCESS:    6930854  HIT:    6814893  MISS:     115961
L1D RFO       ACCESS:    6436698  HIT:    6346926  MISS:      89772
L1D PREFETCH  ACCESS:    6656707  HIT:    6523013  MISS:     133694
L1D WRITEBACK ACCESS:          0  HIT:          0  MISS:          0
L1D PREFETCH  REQUESTED:    6942001  ISSUED:    6732948  USEFUL:      54864  USELESS:      78972
L1D AVERAGE MISS LATENCY: 48.2353 cycles
L1I TOTAL     ACCESS:   39263395  HIT:   38309752  MISS:     953643
L1I LOAD      ACCESS:    9574013  HIT:    9534414  MISS:      39599
L1I RFO       ACCESS:          0  HIT:          0  MISS:          0
L1I PREFETCH  ACCESS:   29689382  HIT:   28775338  MISS:     914044
L1I WRITEBACK ACCESS:          0  HIT:          0  MISS:          0
L1I PREFETCH  REQUESTED:   39691715  ISSUED:   39691715  USEFUL:     637645  USELESS:     276395
L1I AVERAGE MISS LATENCY: 18.4325 cycles
L2C TOTAL     ACCESS:    1852047  HIT:    1605446  MISS:     246601
L2C LOAD      ACCESS:     134932  HIT:      94486  MISS:      40446
L2C RFO       ACCESS:      88821  HIT:      22593  MISS:      66228
L2C PREFETCH  ACCESS:    1502790  HIT:    1363406  MISS:     139384
L2C WRITEBACK ACCESS:     125504  HIT:     124961  MISS:        543
L2C PREFETCH  REQUESTED:    1276431  ISSUED:    1275617  USEFUL:      10396  USELESS:     127691
L2C AVERAGE MISS LATENCY: 62.7921 cycles
LLC TOTAL     ACCESS:     619161  HIT:     555521  MISS:      63640
LLC LOAD      ACCESS:      40444  HIT:      34941  MISS:       5503
LLC RFO       ACCESS:      66228  HIT:      36837  MISS:      29391
LLC PREFETCH  ACCESS:     427897  HIT:     399371  MISS:      28526
LLC WRITEBACK ACCESS:      84592  HIT:      84372  MISS:        220
LLC PREFETCH  REQUESTED:          0  ISSUED:          0  USEFUL:       6156  USELESS:      20613
LLC AVERAGE MISS LATENCY: 174.626 cycles
Major fault: 0 Minor fault: 3096
CPU 0 L1I EPI prefetcher final stats
CPU 0 L1D next line prefetcher final stats

DRAM Statistics
 CHANNEL 0
 RQ ROW_BUFFER_HIT:      22590  ROW_BUFFER_MISS:      40829
 DBUS_CONGESTED:      43133
 WQ ROW_BUFFER_HIT:       9360  ROW_BUFFER_MISS:      28017  FULL:          0

 AVG_CONGESTED_CYCLE: 6

CPU 0 Branch Prediction Accuracy: 94.6086% MPKI: 10.2416 Average ROB Occupancy at Mispredict: 57.742

Branch types
NOT_BRANCH: 40501603 81.0032%
BRANCH_DIRECT_JUMP: 517397 1.03479%
BRANCH_INDIRECT: 112347 0.224694%
BRANCH_CONDITIONAL: 6698736 13.3975%
BRANCH_DIRECT_CALL: 960974 1.92195%
BRANCH_INDIRECT_CALL: 123707 0.247414%
BRANCH_RETURN: 1084929 2.16986%
BRANCH_OTHER: 0 0%

