Initialize SIGNATURE TABLE
ST_SET: 1
ST_WAY: 256
ST_TAG_BIT: 16
ST_TAG_MASK: ffff

Initialize PATTERN TABLE
PT_SET: 512
PT_WAY: 4
SIG_DELTA_BIT: 7
C_SIG_BIT: 4
C_DELTA_BIT: 4

Initialize PREFETCH FILTER
FILTER_SET: 1024

*** ChampSim Multicore Out-of-Order Simulator ***

Warmup Instructions: 50000000
Simulation Instructions: 50000000
Number of CPUs: 1
LLC sets: 2048
LLC ways: 16
Off-chip DRAM Size: 4096 MB Channels: 1 Width: 64-bit Data Rate: 3200 MT/s

CPU 0 runs /home/xuf220/ChampSim/dpc3_traces/client_004.champsimtrace.xz
CPU 0 Bimodal branch predictor
CPU 0 EPI prefetcher
CPU 0 L1D next line prefetcher
Heartbeat CPU 0 instructions: 10000000 cycles: 3593054 heartbeat IPC: 2.78315 cumulative IPC: 2.78315 (Simulation time: 0 hr 0 min 25 sec) 
Heartbeat CPU 0 instructions: 20000003 cycles: 7057582 heartbeat IPC: 2.8864 cumulative IPC: 2.83383 (Simulation time: 0 hr 0 min 48 sec) 
Heartbeat CPU 0 instructions: 30000000 cycles: 10648675 heartbeat IPC: 2.78467 cumulative IPC: 2.81725 (Simulation time: 0 hr 1 min 12 sec) 
Heartbeat CPU 0 instructions: 40000003 cycles: 14329373 heartbeat IPC: 2.71688 cumulative IPC: 2.79147 (Simulation time: 0 hr 1 min 37 sec) 
Heartbeat CPU 0 instructions: 50000001 cycles: 17847862 heartbeat IPC: 2.84213 cumulative IPC: 2.80146 (Simulation time: 0 hr 2 min 3 sec) 

Warmup complete CPU 0 instructions: 50000001 cycles: 17847862 (Simulation time: 0 hr 2 min 3 sec) 

Heartbeat CPU 0 instructions: 60000002 cycles: 26049729 heartbeat IPC: 1.21923 cumulative IPC: 1.21923 (Simulation time: 0 hr 2 min 23 sec) 
Heartbeat CPU 0 instructions: 70000001 cycles: 34320852 heartbeat IPC: 1.20903 cumulative IPC: 1.21411 (Simulation time: 0 hr 2 min 45 sec) 
Heartbeat CPU 0 instructions: 80000001 cycles: 43355046 heartbeat IPC: 1.10691 cumulative IPC: 1.17614 (Simulation time: 0 hr 3 min 6 sec) 
Heartbeat CPU 0 instructions: 90000000 cycles: 51940354 heartbeat IPC: 1.16478 cumulative IPC: 1.17328 (Simulation time: 0 hr 3 min 27 sec) 
Heartbeat CPU 0 instructions: 100000001 cycles: 60156686 heartbeat IPC: 1.21709 cumulative IPC: 1.18179 (Simulation time: 0 hr 3 min 49 sec) 
Finished CPU 0 instructions: 50000000 cycles: 42308824 cumulative IPC: 1.18179 (Simulation time: 0 hr 3 min 49 sec) 

ChampSim completed all CPUs

Region of Interest Statistics

CPU 0 cumulative IPC: 1.18179 instructions: 50000000 cycles: 42308824
L1D TOTAL     ACCESS:   22449960  HIT:   21560870  MISS:     889090
L1D LOAD      ACCESS:    8957668  HIT:    8562405  MISS:     395263
L1D RFO       ACCESS:    4827090  HIT:    4705661  MISS:     121429
L1D PREFETCH  ACCESS:    8665202  HIT:    8292804  MISS:     372398
L1D WRITEBACK ACCESS:          0  HIT:          0  MISS:          0
L1D PREFETCH  REQUESTED:    8998513  ISSUED:    8838721  USEFUL:     133792  USELESS:     238614
L1D AVERAGE MISS LATENCY: 29.3593 cycles
L1I TOTAL     ACCESS:   30117019  HIT:   29243458  MISS:     873561
L1I LOAD      ACCESS:    9389667  HIT:    9298818  MISS:      90849
L1I RFO       ACCESS:          0  HIT:          0  MISS:          0
L1I PREFETCH  ACCESS:   20727352  HIT:   19944640  MISS:     782712
L1I WRITEBACK ACCESS:          0  HIT:          0  MISS:          0
L1I PREFETCH  REQUESTED:   24991623  ISSUED:   24991623  USEFUL:     519411  USELESS:     263326
L1I AVERAGE MISS LATENCY: 23.6478 cycles
L2C TOTAL     ACCESS:    2613903  HIT:    2327190  MISS:     286713
L2C LOAD      ACCESS:     446868  HIT:     369846  MISS:      77022
L2C RFO       ACCESS:     117733  HIT:      45887  MISS:      71846
L2C PREFETCH  ACCESS:    1827254  HIT:    1690011  MISS:     137243
L2C WRITEBACK ACCESS:     222048  HIT:     221446  MISS:        602
L2C PREFETCH  REQUESTED:    1744085  ISSUED:    1743549  USEFUL:      22044  USELESS:     114127
L2C AVERAGE MISS LATENCY: 77.7783 cycles
LLC TOTAL     ACCESS:     713269  HIT:     585533  MISS:     127736
LLC LOAD      ACCESS:      76992  HIT:      50244  MISS:      26748
LLC RFO       ACCESS:      71846  HIT:      41680  MISS:      30166
LLC PREFETCH  ACCESS:     464487  HIT:     393862  MISS:      70625
LLC WRITEBACK ACCESS:      99944  HIT:      99747  MISS:        197
LLC PREFETCH  REQUESTED:          0  ISSUED:          0  USEFUL:      27394  USELESS:      44133
LLC AVERAGE MISS LATENCY: 172.95 cycles
Major fault: 0 Minor fault: 3979
CPU 0 L1I EPI prefetcher final stats
CPU 0 L1D next line prefetcher final stats

DRAM Statistics
 CHANNEL 0
 RQ ROW_BUFFER_HIT:      31014  ROW_BUFFER_MISS:      96506
 DBUS_CONGESTED:      57156
 WQ ROW_BUFFER_HIT:       9645  ROW_BUFFER_MISS:      33644  FULL:          0

 AVG_CONGESTED_CYCLE: 6

CPU 0 Branch Prediction Accuracy: 91.9561% MPKI: 15.8925 Average ROB Occupancy at Mispredict: 56.0173

Branch types
NOT_BRANCH: 40121075 80.2421%
BRANCH_DIRECT_JUMP: 644555 1.28911%
BRANCH_INDIRECT: 201946 0.403892%
BRANCH_CONDITIONAL: 7003556 14.0071%
BRANCH_DIRECT_CALL: 564821 1.12964%
BRANCH_INDIRECT_CALL: 445012 0.890024%
BRANCH_RETURN: 1018716 2.03743%
BRANCH_OTHER: 0 0%

