Initialize SIGNATURE TABLE
ST_SET: 1
ST_WAY: 256
ST_TAG_BIT: 16
ST_TAG_MASK: ffff

Initialize PATTERN TABLE
PT_SET: 512
PT_WAY: 4
SIG_DELTA_BIT: 7
C_SIG_BIT: 4
C_DELTA_BIT: 4

Initialize PREFETCH FILTER
FILTER_SET: 1024

*** ChampSim Multicore Out-of-Order Simulator ***

Warmup Instructions: 50000000
Simulation Instructions: 50000000
Number of CPUs: 1
LLC sets: 2048
LLC ways: 16
Off-chip DRAM Size: 4096 MB Channels: 1 Width: 64-bit Data Rate: 3200 MT/s

CPU 0 runs /home/xuf220/ChampSim/dpc3_traces/server_019.champsimtrace.xz
CPU 0 Bimodal branch predictor
CPU 0 EPI prefetcher
CPU 0 L1D next line prefetcher
Heartbeat CPU 0 instructions: 10000002 cycles: 3622155 heartbeat IPC: 2.76079 cumulative IPC: 2.76079 (Simulation time: 0 hr 0 min 26 sec) 
Heartbeat CPU 0 instructions: 20000003 cycles: 7245570 heartbeat IPC: 2.75983 cumulative IPC: 2.76031 (Simulation time: 0 hr 0 min 53 sec) 
Heartbeat CPU 0 instructions: 30000002 cycles: 10867651 heartbeat IPC: 2.76084 cumulative IPC: 2.76049 (Simulation time: 0 hr 1 min 20 sec) 
Heartbeat CPU 0 instructions: 40000002 cycles: 14501644 heartbeat IPC: 2.75179 cumulative IPC: 2.75831 (Simulation time: 0 hr 1 min 47 sec) 
Heartbeat CPU 0 instructions: 50000001 cycles: 18124110 heartbeat IPC: 2.76055 cumulative IPC: 2.75876 (Simulation time: 0 hr 2 min 14 sec) 

Warmup complete CPU 0 instructions: 50000001 cycles: 18124110 (Simulation time: 0 hr 2 min 14 sec) 

Heartbeat CPU 0 instructions: 60000000 cycles: 38150435 heartbeat IPC: 0.499343 cumulative IPC: 0.499343 (Simulation time: 0 hr 2 min 49 sec) 
Heartbeat CPU 0 instructions: 70000002 cycles: 61782195 heartbeat IPC: 0.423159 cumulative IPC: 0.458105 (Simulation time: 0 hr 3 min 22 sec) 
Heartbeat CPU 0 instructions: 80000001 cycles: 82359748 heartbeat IPC: 0.485966 cumulative IPC: 0.46703 (Simulation time: 0 hr 3 min 54 sec) 
Heartbeat CPU 0 instructions: 90000003 cycles: 100202001 heartbeat IPC: 0.560467 cumulative IPC: 0.487342 (Simulation time: 0 hr 4 min 28 sec) 
Heartbeat CPU 0 instructions: 100000002 cycles: 118102174 heartbeat IPC: 0.558654 cumulative IPC: 0.50011 (Simulation time: 0 hr 5 min 2 sec) 
Finished CPU 0 instructions: 50000001 cycles: 99978064 cumulative IPC: 0.50011 (Simulation time: 0 hr 5 min 2 sec) 

ChampSim completed all CPUs

Region of Interest Statistics

CPU 0 cumulative IPC: 0.50011 instructions: 50000001 cycles: 99978064
L1D TOTAL     ACCESS:   18949318  HIT:   16726300  MISS:    2223018
L1D LOAD      ACCESS:    7277595  HIT:    6526318  MISS:     751277
L1D RFO       ACCESS:    5519873  HIT:    4617633  MISS:     902240
L1D PREFETCH  ACCESS:    6151850  HIT:    5582349  MISS:     569501
L1D WRITEBACK ACCESS:          0  HIT:          0  MISS:          0
L1D PREFETCH  REQUESTED:    7318990  ISSUED:    7165127  USEFUL:     200095  USELESS:     369314
L1D AVERAGE MISS LATENCY: 183.548 cycles
L1I TOTAL     ACCESS:   30986893  HIT:   28787662  MISS:    2199231
L1I LOAD      ACCESS:    9427687  HIT:    9407806  MISS:      19881
L1I RFO       ACCESS:          0  HIT:          0  MISS:          0
L1I PREFETCH  ACCESS:   21559206  HIT:   19379856  MISS:    2179350
L1I WRITEBACK ACCESS:          0  HIT:          0  MISS:          0
L1I PREFETCH  REQUESTED:   25181792  ISSUED:   25181792  USEFUL:    2022462  USELESS:     156853
L1I AVERAGE MISS LATENCY: 20.2753 cycles
L2C TOTAL     ACCESS:    6594281  HIT:    4702222  MISS:    1892059
L2C LOAD      ACCESS:     565080  HIT:     233170  MISS:     331910
L2C RFO       ACCESS:     901559  HIT:      18333  MISS:     883226
L2C PREFETCH  ACCESS:    3952957  HIT:    3278320  MISS:     674637
L2C WRITEBACK ACCESS:    1174685  HIT:    1172399  MISS:       2286
L2C PREFETCH  REQUESTED:    3972925  ISSUED:    3967666  USEFUL:      22524  USELESS:     650662
L2C AVERAGE MISS LATENCY: 219.284 cycles
LLC TOTAL     ACCESS:    4110860  HIT:    2527491  MISS:    1583369
LLC LOAD      ACCESS:     331724  HIT:     168353  MISS:     163371
LLC RFO       ACCESS:     883217  HIT:     115072  MISS:     768145
LLC PREFETCH  ACCESS:    1785120  HIT:    1135317  MISS:     649803
LLC WRITEBACK ACCESS:    1110799  HIT:    1108749  MISS:       2050
LLC PREFETCH  REQUESTED:          0  ISSUED:          0  USEFUL:      50296  USELESS:     599183
LLC AVERAGE MISS LATENCY: 272.155 cycles
Major fault: 0 Minor fault: 25692
CPU 0 L1I EPI prefetcher final stats
CPU 0 L1D next line prefetcher final stats

DRAM Statistics
 CHANNEL 0
 RQ ROW_BUFFER_HIT:     395734  ROW_BUFFER_MISS:    1185338
 DBUS_CONGESTED:    1557032
 WQ ROW_BUFFER_HIT:     263445  ROW_BUFFER_MISS:     670183  FULL:          0

 AVG_CONGESTED_CYCLE: 6

CPU 0 Branch Prediction Accuracy: 95.5087% MPKI: 7.59838 Average ROB Occupancy at Mispredict: 101.615

Branch types
NOT_BRANCH: 41540760 83.0815%
BRANCH_DIRECT_JUMP: 462382 0.924764%
BRANCH_INDIRECT: 45460 0.09092%
BRANCH_CONDITIONAL: 6209270 12.4185%
BRANCH_DIRECT_CALL: 666240 1.33248%
BRANCH_INDIRECT_CALL: 204728 0.409456%
BRANCH_RETURN: 870977 1.74195%
BRANCH_OTHER: 0 0%

