Initialize SIGNATURE TABLE
ST_SET: 1
ST_WAY: 256
ST_TAG_BIT: 16
ST_TAG_MASK: ffff

Initialize PATTERN TABLE
PT_SET: 512
PT_WAY: 4
SIG_DELTA_BIT: 7
C_SIG_BIT: 4
C_DELTA_BIT: 4

Initialize PREFETCH FILTER
FILTER_SET: 1024

*** ChampSim Multicore Out-of-Order Simulator ***

Warmup Instructions: 50000000
Simulation Instructions: 50000000
Number of CPUs: 1
LLC sets: 2048
LLC ways: 16
Off-chip DRAM Size: 4096 MB Channels: 1 Width: 64-bit Data Rate: 3200 MT/s

CPU 0 runs /home/xuf220/ChampSim/dpc3_traces/server_029.champsimtrace.xz
CPU 0 Bimodal branch predictor
CPU 0 EPI prefetcher
CPU 0 L1D next line prefetcher
Heartbeat CPU 0 instructions: 10000001 cycles: 3487765 heartbeat IPC: 2.86717 cumulative IPC: 2.86717 (Simulation time: 0 hr 0 min 26 sec) 
Heartbeat CPU 0 instructions: 20000002 cycles: 6975406 heartbeat IPC: 2.86727 cumulative IPC: 2.86722 (Simulation time: 0 hr 0 min 52 sec) 
Heartbeat CPU 0 instructions: 30000003 cycles: 10464293 heartbeat IPC: 2.86624 cumulative IPC: 2.86689 (Simulation time: 0 hr 1 min 18 sec) 
Heartbeat CPU 0 instructions: 40000000 cycles: 13959789 heartbeat IPC: 2.86082 cumulative IPC: 2.86537 (Simulation time: 0 hr 1 min 44 sec) 
Heartbeat CPU 0 instructions: 50000000 cycles: 17454483 heartbeat IPC: 2.86148 cumulative IPC: 2.86459 (Simulation time: 0 hr 2 min 10 sec) 

Warmup complete CPU 0 instructions: 50000004 cycles: 17454484 (Simulation time: 0 hr 2 min 10 sec) 

Heartbeat CPU 0 instructions: 60000000 cycles: 25962322 heartbeat IPC: 1.17539 cumulative IPC: 1.17539 (Simulation time: 0 hr 2 min 34 sec) 
Heartbeat CPU 0 instructions: 70000003 cycles: 34616013 heartbeat IPC: 1.15558 cumulative IPC: 1.1654 (Simulation time: 0 hr 2 min 58 sec) 
Heartbeat CPU 0 instructions: 80000002 cycles: 43095056 heartbeat IPC: 1.17938 cumulative IPC: 1.17002 (Simulation time: 0 hr 3 min 21 sec) 
*** Reached end of trace for Core: 0 Repeating trace: /home/xuf220/ChampSim/dpc3_traces/server_029.champsimtrace.xz
Heartbeat CPU 0 instructions: 90000000 cycles: 51492424 heartbeat IPC: 1.19085 cumulative IPC: 1.17516 (Simulation time: 0 hr 3 min 45 sec) 
Heartbeat CPU 0 instructions: 100000000 cycles: 59882060 heartbeat IPC: 1.19195 cumulative IPC: 1.17848 (Simulation time: 0 hr 4 min 9 sec) 
Finished CPU 0 instructions: 50000000 cycles: 42427577 cumulative IPC: 1.17848 (Simulation time: 0 hr 4 min 9 sec) 

ChampSim completed all CPUs

Region of Interest Statistics

CPU 0 cumulative IPC: 1.17848 instructions: 50000000 cycles: 42427577
L1D TOTAL     ACCESS:   20456215  HIT:   18358159  MISS:    2098056
L1D LOAD      ACCESS:    7402220  HIT:    6342406  MISS:    1059814
L1D RFO       ACCESS:    6138054  HIT:    5852261  MISS:     285793
L1D PREFETCH  ACCESS:    6915941  HIT:    6163492  MISS:     752449
L1D WRITEBACK ACCESS:          0  HIT:          0  MISS:          0
L1D PREFETCH  REQUESTED:    7476882  ISSUED:    7402384  USEFUL:     181503  USELESS:     570939
L1D AVERAGE MISS LATENCY: 20.8599 cycles
L1I TOTAL     ACCESS:   29225849  HIT:   25772155  MISS:    3453694
L1I LOAD      ACCESS:    9446440  HIT:    9415911  MISS:      30529
L1I RFO       ACCESS:          0  HIT:          0  MISS:          0
L1I PREFETCH  ACCESS:   19779409  HIT:   16356244  MISS:    3423165
L1I WRITEBACK ACCESS:          0  HIT:          0  MISS:          0
L1I PREFETCH  REQUESTED:   24370821  ISSUED:   24370821  USEFUL:    2926805  USELESS:     496375
L1I AVERAGE MISS LATENCY: 18.4138 cycles
L2C TOTAL     ACCESS:    7850715  HIT:    7181457  MISS:     669258
L2C LOAD      ACCESS:     890218  HIT:     761411  MISS:     128807
L2C RFO       ACCESS:     283678  HIT:     238307  MISS:      45371
L2C PREFETCH  ACCESS:    6066147  HIT:    5574740  MISS:     491407
L2C WRITEBACK ACCESS:     610672  HIT:     606999  MISS:       3673
L2C PREFETCH  REQUESTED:    6756452  ISSUED:    6740905  USEFUL:      10292  USELESS:     480260
L2C AVERAGE MISS LATENCY: 42.971 cycles
LLC TOTAL     ACCESS:    2366774  HIT:    2290651  MISS:      76123
LLC LOAD      ACCESS:     128608  HIT:     111748  MISS:      16860
LLC RFO       ACCESS:      45331  HIT:      41665  MISS:       3666
LLC PREFETCH  ACCESS:    2095239  HIT:    2040256  MISS:      54983
LLC WRITEBACK ACCESS:      97596  HIT:      96982  MISS:        614
LLC PREFETCH  REQUESTED:          0  ISSUED:          0  USEFUL:       2428  USELESS:      52730
LLC AVERAGE MISS LATENCY: 159.291 cycles
Major fault: 0 Minor fault: 5920
CPU 0 L1I EPI prefetcher final stats
CPU 0 L1D next line prefetcher final stats

DRAM Statistics
 CHANNEL 0
 RQ ROW_BUFFER_HIT:      21038  ROW_BUFFER_MISS:      54456
 DBUS_CONGESTED:      30489
 WQ ROW_BUFFER_HIT:        589  ROW_BUFFER_MISS:       4159  FULL:          0

 AVG_CONGESTED_CYCLE: 5

CPU 0 Branch Prediction Accuracy: 92.2007% MPKI: 14.6831 Average ROB Occupancy at Mispredict: 68.1453

Branch types
NOT_BRANCH: 40586521 81.173%
BRANCH_DIRECT_JUMP: 525208 1.05042%
BRANCH_INDIRECT: 166358 0.332716%
BRANCH_CONDITIONAL: 6373075 12.7462%
BRANCH_DIRECT_CALL: 989260 1.97852%
BRANCH_INDIRECT_CALL: 184984 0.369968%
BRANCH_RETURN: 1174249 2.3485%
BRANCH_OTHER: 0 0%

