Initialize SIGNATURE TABLE
ST_SET: 1
ST_WAY: 256
ST_TAG_BIT: 16
ST_TAG_MASK: ffff

Initialize PATTERN TABLE
PT_SET: 512
PT_WAY: 4
SIG_DELTA_BIT: 7
C_SIG_BIT: 4
C_DELTA_BIT: 4

Initialize PREFETCH FILTER
FILTER_SET: 1024

*** ChampSim Multicore Out-of-Order Simulator ***

Warmup Instructions: 50000000
Simulation Instructions: 50000000
Number of CPUs: 1
LLC sets: 2048
LLC ways: 16
Off-chip DRAM Size: 4096 MB Channels: 1 Width: 64-bit Data Rate: 3200 MT/s

CPU 0 runs /home/xubinfang/Desktop/ChampSim/dpc3_traces/client_003.champsimtrace.xz
CPU 0 Bimodal branch predictor
CPU 0 EPI prefetcher
CPU 0 L1D next line prefetcher
Heartbeat CPU 0 instructions: 10000000 cycles: 3478424 heartbeat IPC: 2.87487 cumulative IPC: 2.87487 (Simulation time: 0 hr 0 min 46 sec) 
Heartbeat CPU 0 instructions: 20000002 cycles: 6932821 heartbeat IPC: 2.89486 cumulative IPC: 2.88483 (Simulation time: 0 hr 1 min 27 sec) 
Heartbeat CPU 0 instructions: 30000003 cycles: 10493757 heartbeat IPC: 2.80825 cumulative IPC: 2.85884 (Simulation time: 0 hr 2 min 9 sec) 
Heartbeat CPU 0 instructions: 40000001 cycles: 14110348 heartbeat IPC: 2.76503 cumulative IPC: 2.8348 (Simulation time: 0 hr 2 min 58 sec) 
Heartbeat CPU 0 instructions: 50000003 cycles: 17655700 heartbeat IPC: 2.8206 cumulative IPC: 2.83195 (Simulation time: 0 hr 3 min 43 sec) 

Warmup complete CPU 0 instructions: 50000003 cycles: 17655700 (Simulation time: 0 hr 3 min 43 sec) 

Heartbeat CPU 0 instructions: 60000002 cycles: 24358297 heartbeat IPC: 1.49196 cumulative IPC: 1.49196 (Simulation time: 0 hr 4 min 28 sec) 
Heartbeat CPU 0 instructions: 70000001 cycles: 30845467 heartbeat IPC: 1.5415 cumulative IPC: 1.51633 (Simulation time: 0 hr 5 min 3 sec) 
Heartbeat CPU 0 instructions: 80000003 cycles: 38213138 heartbeat IPC: 1.35728 cumulative IPC: 1.45933 (Simulation time: 0 hr 5 min 38 sec) 
Heartbeat CPU 0 instructions: 90000000 cycles: 47453094 heartbeat IPC: 1.08226 cumulative IPC: 1.3424 (Simulation time: 0 hr 6 min 9 sec) 
Heartbeat CPU 0 instructions: 100000003 cycles: 58359187 heartbeat IPC: 0.916919 cumulative IPC: 1.2284 (Simulation time: 0 hr 6 min 40 sec) 
Finished CPU 0 instructions: 50000000 cycles: 40703487 cumulative IPC: 1.2284 (Simulation time: 0 hr 6 min 40 sec) 

ChampSim completed all CPUs

Region of Interest Statistics

CPU 0 cumulative IPC: 1.2284 instructions: 50000000 cycles: 40703487
L1D TOTAL     ACCESS:   18017102  HIT:   17520931  MISS:     496171
L1D LOAD      ACCESS:    6227052  HIT:    6100530  MISS:     126522
L1D RFO       ACCESS:    5959822  HIT:    5725540  MISS:     234282
L1D PREFETCH  ACCESS:    5830228  HIT:    5694861  MISS:     135367
L1D WRITEBACK ACCESS:          0  HIT:          0  MISS:          0
L1D PREFETCH  REQUESTED:    6269059  ISSUED:    6124376  USEFUL:      67317  USELESS:      68097
L1D AVERAGE MISS LATENCY: 121.782 cycles
L1I TOTAL     ACCESS:   26556626  HIT:   25774897  MISS:     781729
L1I LOAD      ACCESS:    9426713  HIT:    9355069  MISS:      71644
L1I RFO       ACCESS:          0  HIT:          0  MISS:          0
L1I PREFETCH  ACCESS:   17129913  HIT:   16419828  MISS:     710085
L1I WRITEBACK ACCESS:          0  HIT:          0  MISS:          0
L1I PREFETCH  REQUESTED:   20502637  ISSUED:   20502637  USEFUL:     474602  USELESS:     235529
L1I AVERAGE MISS LATENCY: 19.5473 cycles
L2C TOTAL     ACCESS:    1911473  HIT:    1520209  MISS:     391264
L2C LOAD      ACCESS:     147111  HIT:      96856  MISS:      50255
L2C RFO       ACCESS:     232261  HIT:      25912  MISS:     206349
L2C PREFETCH  ACCESS:    1262816  HIT:    1129242  MISS:     133574
L2C WRITEBACK ACCESS:     269285  HIT:     268199  MISS:       1086
L2C PREFETCH  REQUESTED:    1287123  ISSUED:    1286691  USEFUL:      12050  USELESS:     121048
L2C AVERAGE MISS LATENCY: 166.473 cycles
LLC TOTAL     ACCESS:     990524  HIT:     707234  MISS:     283290
LLC LOAD      ACCESS:      50168  HIT:      34992  MISS:      15176
LLC RFO       ACCESS:     206339  HIT:      34813  MISS:     171526
LLC PREFETCH  ACCESS:     510169  HIT:     414015  MISS:      96154
LLC WRITEBACK ACCESS:     223848  HIT:     223414  MISS:        434
LLC PREFETCH  REQUESTED:          0  ISSUED:          0  USEFUL:      13559  USELESS:      81120
LLC AVERAGE MISS LATENCY: 229.651 cycles
Major fault: 0 Minor fault: 5043
CPU 0 L1I EPI prefetcher final stats
CPU 0 L1D next line prefetcher final stats

DRAM Statistics
 CHANNEL 0
 RQ ROW_BUFFER_HIT:      99603  ROW_BUFFER_MISS:     183250
 DBUS_CONGESTED:     254780
 WQ ROW_BUFFER_HIT:      59650  ROW_BUFFER_MISS:     119023  FULL:          0

 AVG_CONGESTED_CYCLE: 6

CPU 0 Branch Prediction Accuracy: 96.8235% MPKI: 6.3409 Average ROB Occupancy at Mispredict: 66.7827

Branch types
NOT_BRANCH: 40018656 80.0373%
BRANCH_DIRECT_JUMP: 370859 0.741718%
BRANCH_INDIRECT: 83252 0.166504%
BRANCH_CONDITIONAL: 7877420 15.7548%
BRANCH_DIRECT_CALL: 722308 1.44462%
BRANCH_INDIRECT_CALL: 101901 0.203802%
BRANCH_RETURN: 825352 1.6507%
BRANCH_OTHER: 0 0%

