Initialize SIGNATURE TABLE
ST_SET: 1
ST_WAY: 256
ST_TAG_BIT: 16
ST_TAG_MASK: ffff

Initialize PATTERN TABLE
PT_SET: 512
PT_WAY: 4
SIG_DELTA_BIT: 7
C_SIG_BIT: 4
C_DELTA_BIT: 4

Initialize PREFETCH FILTER
FILTER_SET: 1024

*** ChampSim Multicore Out-of-Order Simulator ***

Warmup Instructions: 50000000
Simulation Instructions: 50000000
Number of CPUs: 1
LLC sets: 2048
LLC ways: 16
Off-chip DRAM Size: 4096 MB Channels: 1 Width: 64-bit Data Rate: 3200 MT/s

CPU 0 runs /home/xubinfang/Desktop/ChampSim/dpc3_traces/server_028.champsimtrace.xz
CPU 0 Bimodal branch predictor
CPU 0 EPI prefetcher
CPU 0 L1D next line prefetcher
Heartbeat CPU 0 instructions: 10000001 cycles: 3494133 heartbeat IPC: 2.86194 cumulative IPC: 2.86194 (Simulation time: 0 hr 0 min 32 sec) 
Heartbeat CPU 0 instructions: 20000002 cycles: 6988340 heartbeat IPC: 2.86188 cumulative IPC: 2.86191 (Simulation time: 0 hr 1 min 4 sec) 
Heartbeat CPU 0 instructions: 30000001 cycles: 10480692 heartbeat IPC: 2.8634 cumulative IPC: 2.86241 (Simulation time: 0 hr 1 min 35 sec) 
Heartbeat CPU 0 instructions: 40000002 cycles: 13979579 heartbeat IPC: 2.85805 cumulative IPC: 2.86132 (Simulation time: 0 hr 2 min 9 sec) 
Heartbeat CPU 0 instructions: 50000001 cycles: 17474771 heartbeat IPC: 2.86107 cumulative IPC: 2.86127 (Simulation time: 0 hr 2 min 39 sec) 

Warmup complete CPU 0 instructions: 50000001 cycles: 17474771 (Simulation time: 0 hr 2 min 39 sec) 

Heartbeat CPU 0 instructions: 60000000 cycles: 26033530 heartbeat IPC: 1.16839 cumulative IPC: 1.16839 (Simulation time: 0 hr 3 min 7 sec) 
Heartbeat CPU 0 instructions: 70000000 cycles: 34570162 heartbeat IPC: 1.17142 cumulative IPC: 1.16991 (Simulation time: 0 hr 3 min 34 sec) 
Heartbeat CPU 0 instructions: 80000000 cycles: 43122296 heartbeat IPC: 1.1693 cumulative IPC: 1.1697 (Simulation time: 0 hr 4 min 3 sec) 
*** Reached end of trace for Core: 0 Repeating trace: /home/xubinfang/Desktop/ChampSim/dpc3_traces/server_028.champsimtrace.xz
Heartbeat CPU 0 instructions: 90000000 cycles: 51644741 heartbeat IPC: 1.17337 cumulative IPC: 1.17062 (Simulation time: 0 hr 4 min 32 sec) 
Heartbeat CPU 0 instructions: 100000003 cycles: 60114414 heartbeat IPC: 1.18068 cumulative IPC: 1.17262 (Simulation time: 0 hr 5 min 0 sec) 
Finished CPU 0 instructions: 50000002 cycles: 42639643 cumulative IPC: 1.17262 (Simulation time: 0 hr 5 min 0 sec) 

ChampSim completed all CPUs

Region of Interest Statistics

CPU 0 cumulative IPC: 1.17262 instructions: 50000002 cycles: 42639643
L1D TOTAL     ACCESS:   20434837  HIT:   18359205  MISS:    2075632
L1D LOAD      ACCESS:    7387102  HIT:    6346077  MISS:    1041025
L1D RFO       ACCESS:    6135713  HIT:    5851958  MISS:     283755
L1D PREFETCH  ACCESS:    6912022  HIT:    6161170  MISS:     750852
L1D WRITEBACK ACCESS:          0  HIT:          0  MISS:          0
L1D PREFETCH  REQUESTED:    7458571  ISSUED:    7380918  USEFUL:     182884  USELESS:     567970
L1D AVERAGE MISS LATENCY: 21.5312 cycles
L1I TOTAL     ACCESS:   29007557  HIT:   25552503  MISS:    3455054
L1I LOAD      ACCESS:    9436847  HIT:    9392028  MISS:      44819
L1I RFO       ACCESS:          0  HIT:          0  MISS:          0
L1I PREFETCH  ACCESS:   19570710  HIT:   16160475  MISS:    3410235
L1I WRITEBACK ACCESS:          0  HIT:          0  MISS:          0
L1I PREFETCH  REQUESTED:   23814510  ISSUED:   23814510  USEFUL:    2897948  USELESS:     512280
L1I AVERAGE MISS LATENCY: 18.2219 cycles
L2C TOTAL     ACCESS:    7867409  HIT:    7154647  MISS:     712762
L2C LOAD      ACCESS:     889444  HIT:     735699  MISS:     153745
L2C RFO       ACCESS:     281731  HIT:     221024  MISS:      60707
L2C PREFETCH  ACCESS:    6091058  HIT:    5594337  MISS:     496721
L2C WRITEBACK ACCESS:     605176  HIT:     603587  MISS:       1589
L2C PREFETCH  REQUESTED:    6753698  ISSUED:    6740569  USEFUL:      11055  USELESS:     485137
L2C AVERAGE MISS LATENCY: 40.9297 cycles
LLC TOTAL     ACCESS:    2321277  HIT:    2255751  MISS:      65526
LLC LOAD      ACCESS:     153618  HIT:     137905  MISS:      15713
LLC RFO       ACCESS:      60707  HIT:      58747  MISS:       1960
LLC PREFETCH  ACCESS:    1996442  HIT:    1948953  MISS:      47489
LLC WRITEBACK ACCESS:     110510  HIT:     110146  MISS:        364
LLC PREFETCH  REQUESTED:          0  ISSUED:          0  USEFUL:       2093  USELESS:      45374
LLC AVERAGE MISS LATENCY: 155.169 cycles
Major fault: 0 Minor fault: 6038
CPU 0 L1I EPI prefetcher final stats
CPU 0 L1D next line prefetcher final stats

DRAM Statistics
 CHANNEL 0
 RQ ROW_BUFFER_HIT:      18177  ROW_BUFFER_MISS:      46985
 DBUS_CONGESTED:      25742
 WQ ROW_BUFFER_HIT:        351  ROW_BUFFER_MISS:       3111  FULL:          0

 AVG_CONGESTED_CYCLE: 4

CPU 0 Branch Prediction Accuracy: 92.182% MPKI: 14.7119 Average ROB Occupancy at Mispredict: 67.1641

Branch types
NOT_BRANCH: 40590679 81.1814%
BRANCH_DIRECT_JUMP: 523489 1.04698%
BRANCH_INDIRECT: 166997 0.333994%
BRANCH_CONDITIONAL: 6365158 12.7303%
BRANCH_DIRECT_CALL: 989487 1.97897%
BRANCH_INDIRECT_CALL: 187202 0.374404%
BRANCH_RETURN: 1176692 2.35338%
BRANCH_OTHER: 0 0%

