Initialize SIGNATURE TABLE
ST_SET: 1
ST_WAY: 256
ST_TAG_BIT: 16
ST_TAG_MASK: ffff

Initialize PATTERN TABLE
PT_SET: 512
PT_WAY: 4
SIG_DELTA_BIT: 7
C_SIG_BIT: 4
C_DELTA_BIT: 4

Initialize PREFETCH FILTER
FILTER_SET: 1024

*** ChampSim Multicore Out-of-Order Simulator ***

Warmup Instructions: 50000000
Simulation Instructions: 50000000
Number of CPUs: 1
LLC sets: 2048
LLC ways: 16
Off-chip DRAM Size: 4096 MB Channels: 1 Width: 64-bit Data Rate: 3200 MT/s

CPU 0 runs /home/xubinfang/Desktop/ChampSim/dpc3_traces/server_023.champsimtrace.xz
CPU 0 Bimodal branch predictor
CPU 0 EPI prefetcher
CPU 0 L1D next line prefetcher
Heartbeat CPU 0 instructions: 10000000 cycles: 3498239 heartbeat IPC: 2.85858 cumulative IPC: 2.85858 (Simulation time: 0 hr 0 min 31 sec) 
Heartbeat CPU 0 instructions: 20000000 cycles: 6995883 heartbeat IPC: 2.85907 cumulative IPC: 2.85882 (Simulation time: 0 hr 1 min 1 sec) 
Heartbeat CPU 0 instructions: 30000001 cycles: 10487328 heartbeat IPC: 2.86414 cumulative IPC: 2.8606 (Simulation time: 0 hr 1 min 29 sec) 
Heartbeat CPU 0 instructions: 40000003 cycles: 13984541 heartbeat IPC: 2.85942 cumulative IPC: 2.8603 (Simulation time: 0 hr 1 min 59 sec) 
Heartbeat CPU 0 instructions: 50000001 cycles: 17483528 heartbeat IPC: 2.85797 cumulative IPC: 2.85983 (Simulation time: 0 hr 2 min 30 sec) 

Warmup complete CPU 0 instructions: 50000001 cycles: 17483528 (Simulation time: 0 hr 2 min 30 sec) 

Heartbeat CPU 0 instructions: 60000002 cycles: 25373784 heartbeat IPC: 1.26739 cumulative IPC: 1.26739 (Simulation time: 0 hr 2 min 58 sec) 
Heartbeat CPU 0 instructions: 70000002 cycles: 33482525 heartbeat IPC: 1.23324 cumulative IPC: 1.25008 (Simulation time: 0 hr 3 min 25 sec) 
Heartbeat CPU 0 instructions: 80000000 cycles: 41448140 heartbeat IPC: 1.2554 cumulative IPC: 1.25185 (Simulation time: 0 hr 3 min 50 sec) 
Heartbeat CPU 0 instructions: 90000000 cycles: 49316308 heartbeat IPC: 1.27094 cumulative IPC: 1.25657 (Simulation time: 0 hr 4 min 14 sec) 
Heartbeat CPU 0 instructions: 100000001 cycles: 57250238 heartbeat IPC: 1.26041 cumulative IPC: 1.25733 (Simulation time: 0 hr 4 min 39 sec) 
Finished CPU 0 instructions: 50000000 cycles: 39766710 cumulative IPC: 1.25733 (Simulation time: 0 hr 4 min 39 sec) 

ChampSim completed all CPUs

Region of Interest Statistics

CPU 0 cumulative IPC: 1.25733 instructions: 50000000 cycles: 39766710
L1D TOTAL     ACCESS:   20785247  HIT:   19316919  MISS:    1468328
L1D LOAD      ACCESS:    7542265  HIT:    6885914  MISS:     656351
L1D RFO       ACCESS:    6009226  HIT:    5747534  MISS:     261692
L1D PREFETCH  ACCESS:    7233756  HIT:    6683471  MISS:     550285
L1D WRITEBACK ACCESS:          0  HIT:          0  MISS:          0
L1D PREFETCH  REQUESTED:    7599743  ISSUED:    7493238  USEFUL:     134554  USELESS:     415741
L1D AVERAGE MISS LATENCY: 24.1916 cycles
L1I TOTAL     ACCESS:   27479804  HIT:   24552306  MISS:    2927498
L1I LOAD      ACCESS:    9209899  HIT:    9134518  MISS:      75381
L1I RFO       ACCESS:          0  HIT:          0  MISS:          0
L1I PREFETCH  ACCESS:   18269905  HIT:   15417788  MISS:    2852117
L1I WRITEBACK ACCESS:          0  HIT:          0  MISS:          0
L1I PREFETCH  REQUESTED:   23042178  ISSUED:   23042178  USEFUL:    2376035  USELESS:     476071
L1I AVERAGE MISS LATENCY: 18.8812 cycles
L2C TOTAL     ACCESS:    6016053  HIT:    5338070  MISS:     677983
L2C LOAD      ACCESS:     629324  HIT:     510653  MISS:     118671
L2C RFO       ACCESS:     259421  HIT:     165047  MISS:      94374
L2C PREFETCH  ACCESS:    4628012  HIT:    4165479  MISS:     462533
L2C WRITEBACK ACCESS:     499296  HIT:     496891  MISS:       2405
L2C PREFETCH  REQUESTED:    4770205  ISSUED:    4767553  USEFUL:      16924  USELESS:     445439
L2C AVERAGE MISS LATENCY: 42.2747 cycles
LLC TOTAL     ACCESS:    2075776  HIT:    2022752  MISS:      53024
LLC LOAD      ACCESS:     118487  HIT:     111914  MISS:       6573
LLC RFO       ACCESS:      94369  HIT:      76519  MISS:      17850
LLC PREFETCH  ACCESS:    1716940  HIT:    1688620  MISS:      28320
LLC WRITEBACK ACCESS:     145980  HIT:     145699  MISS:        281
LLC PREFETCH  REQUESTED:          0  ISSUED:          0  USEFUL:       2737  USELESS:      25381
LLC AVERAGE MISS LATENCY: 180.001 cycles
Major fault: 0 Minor fault: 2769
CPU 0 L1I EPI prefetcher final stats
CPU 0 L1D next line prefetcher final stats

DRAM Statistics
 CHANNEL 0
 RQ ROW_BUFFER_HIT:      15513  ROW_BUFFER_MISS:      37212
 DBUS_CONGESTED:      32210
 WQ ROW_BUFFER_HIT:       2405  ROW_BUFFER_MISS:      19184  FULL:          0

 AVG_CONGESTED_CYCLE: 6

CPU 0 Branch Prediction Accuracy: 92.0242% MPKI: 14.5982 Average ROB Occupancy at Mispredict: 59.7882

Branch types
NOT_BRANCH: 40848125 81.6963%
BRANCH_DIRECT_JUMP: 548368 1.09674%
BRANCH_INDIRECT: 189802 0.379604%
BRANCH_CONDITIONAL: 6372728 12.7455%
BRANCH_DIRECT_CALL: 862206 1.72441%
BRANCH_INDIRECT_CALL: 158147 0.316294%
BRANCH_RETURN: 1020342 2.04068%
BRANCH_OTHER: 0 0%

