Initialize SIGNATURE TABLE
ST_SET: 1
ST_WAY: 256
ST_TAG_BIT: 16
ST_TAG_MASK: ffff

Initialize PATTERN TABLE
PT_SET: 512
PT_WAY: 4
SIG_DELTA_BIT: 7
C_SIG_BIT: 4
C_DELTA_BIT: 4

Initialize PREFETCH FILTER
FILTER_SET: 1024

*** ChampSim Multicore Out-of-Order Simulator ***

Warmup Instructions: 50000000
Simulation Instructions: 50000000
Number of CPUs: 1
LLC sets: 2048
LLC ways: 16
Off-chip DRAM Size: 4096 MB Channels: 1 Width: 64-bit Data Rate: 3200 MT/s

CPU 0 runs /home/xubinfang/Desktop/ChampSim/dpc3_traces/server_024.champsimtrace.xz
CPU 0 Bimodal branch predictor
CPU 0 EPI prefetcher
CPU 0 L1D next line prefetcher
Heartbeat CPU 0 instructions: 10000000 cycles: 3498778 heartbeat IPC: 2.85814 cumulative IPC: 2.85814 (Simulation time: 0 hr 0 min 29 sec) 
Heartbeat CPU 0 instructions: 20000002 cycles: 6990334 heartbeat IPC: 2.86405 cumulative IPC: 2.86109 (Simulation time: 0 hr 0 min 58 sec) 
Heartbeat CPU 0 instructions: 30000000 cycles: 10492438 heartbeat IPC: 2.85543 cumulative IPC: 2.8592 (Simulation time: 0 hr 1 min 26 sec) 
Heartbeat CPU 0 instructions: 40000000 cycles: 13991815 heartbeat IPC: 2.85765 cumulative IPC: 2.85881 (Simulation time: 0 hr 1 min 55 sec) 
Heartbeat CPU 0 instructions: 50000001 cycles: 17480765 heartbeat IPC: 2.86619 cumulative IPC: 2.86029 (Simulation time: 0 hr 2 min 24 sec) 

Warmup complete CPU 0 instructions: 50000001 cycles: 17480765 (Simulation time: 0 hr 2 min 24 sec) 

Heartbeat CPU 0 instructions: 60000000 cycles: 25370617 heartbeat IPC: 1.26745 cumulative IPC: 1.26745 (Simulation time: 0 hr 2 min 52 sec) 
Heartbeat CPU 0 instructions: 70000000 cycles: 33271873 heartbeat IPC: 1.26562 cumulative IPC: 1.26654 (Simulation time: 0 hr 3 min 18 sec) 
*** Reached end of trace for Core: 0 Repeating trace: /home/xubinfang/Desktop/ChampSim/dpc3_traces/server_024.champsimtrace.xz
Heartbeat CPU 0 instructions: 80000003 cycles: 41160298 heartbeat IPC: 1.26768 cumulative IPC: 1.26692 (Simulation time: 0 hr 3 min 45 sec) 
Heartbeat CPU 0 instructions: 90000000 cycles: 49094460 heartbeat IPC: 1.26037 cumulative IPC: 1.26527 (Simulation time: 0 hr 4 min 13 sec) 
Heartbeat CPU 0 instructions: 100000002 cycles: 56994198 heartbeat IPC: 1.26586 cumulative IPC: 1.26539 (Simulation time: 0 hr 4 min 40 sec) 
Finished CPU 0 instructions: 50000001 cycles: 39513433 cumulative IPC: 1.26539 (Simulation time: 0 hr 4 min 40 sec) 

ChampSim completed all CPUs

Region of Interest Statistics

CPU 0 cumulative IPC: 1.26539 instructions: 50000001 cycles: 39513433
L1D TOTAL     ACCESS:   21164951  HIT:   19645591  MISS:    1519360
L1D LOAD      ACCESS:    7651057  HIT:    6975308  MISS:     675749
L1D RFO       ACCESS:    6177643  HIT:    5903656  MISS:     273987
L1D PREFETCH  ACCESS:    7336251  HIT:    6766627  MISS:     569624
L1D WRITEBACK ACCESS:          0  HIT:          0  MISS:          0
L1D PREFETCH  REQUESTED:    7709911  ISSUED:    7604357  USEFUL:     141091  USELESS:     428535
L1D AVERAGE MISS LATENCY: 24.8434 cycles
L1I TOTAL     ACCESS:   26976232  HIT:   23944637  MISS:    3031595
L1I LOAD      ACCESS:    9076470  HIT:    9006517  MISS:      69953
L1I RFO       ACCESS:          0  HIT:          0  MISS:          0
L1I PREFETCH  ACCESS:   17899762  HIT:   14938120  MISS:    2961642
L1I WRITEBACK ACCESS:          0  HIT:          0  MISS:          0
L1I PREFETCH  REQUESTED:   21921310  ISSUED:   21921310  USEFUL:    2479982  USELESS:     481638
L1I AVERAGE MISS LATENCY: 19.1769 cycles
L2C TOTAL     ACCESS:    6221689  HIT:    5496760  MISS:     724929
L2C LOAD      ACCESS:     640400  HIT:     519102  MISS:     121298
L2C RFO       ACCESS:     272198  HIT:     184732  MISS:      87466
L2C PREFETCH  ACCESS:    4788827  HIT:    4275899  MISS:     512928
L2C WRITEBACK ACCESS:     520264  HIT:     517027  MISS:       3237
L2C PREFETCH  REQUESTED:    5091540  ISSUED:    5088488  USEFUL:      15946  USELESS:     496167
L2C AVERAGE MISS LATENCY: 43.5452 cycles
LLC TOTAL     ACCESS:    2180876  HIT:    2128281  MISS:      52595
LLC LOAD      ACCESS:     121052  HIT:     115509  MISS:       5543
LLC RFO       ACCESS:      87463  HIT:      65313  MISS:      22150
LLC PREFETCH  ACCESS:    1832767  HIT:    1808167  MISS:      24600
LLC WRITEBACK ACCESS:     139594  HIT:     139292  MISS:        302
LLC PREFETCH  REQUESTED:          0  ISSUED:          0  USEFUL:       2199  USELESS:      23077
LLC AVERAGE MISS LATENCY: 194.997 cycles
Major fault: 0 Minor fault: 2366
CPU 0 L1I EPI prefetcher final stats
CPU 0 L1D next line prefetcher final stats

DRAM Statistics
 CHANNEL 0
 RQ ROW_BUFFER_HIT:      17934  ROW_BUFFER_MISS:      34350
 DBUS_CONGESTED:      37584
 WQ ROW_BUFFER_HIT:       2562  ROW_BUFFER_MISS:      22392  FULL:          0

 AVG_CONGESTED_CYCLE: 6

CPU 0 Branch Prediction Accuracy: 91.8907% MPKI: 14.8338 Average ROB Occupancy at Mispredict: 60.7316

Branch types
NOT_BRANCH: 40853572 81.7071%
BRANCH_DIRECT_JUMP: 566812 1.13362%
BRANCH_INDIRECT: 197171 0.394342%
BRANCH_CONDITIONAL: 6308397 12.6168%
BRANCH_DIRECT_CALL: 876399 1.7528%
BRANCH_INDIRECT_CALL: 160491 0.320982%
BRANCH_RETURN: 1036885 2.07377%
BRANCH_OTHER: 0 0%

