Initialize SIGNATURE TABLE
ST_SET: 1
ST_WAY: 256
ST_TAG_BIT: 16
ST_TAG_MASK: ffff

Initialize PATTERN TABLE
PT_SET: 512
PT_WAY: 4
SIG_DELTA_BIT: 7
C_SIG_BIT: 4
C_DELTA_BIT: 4

Initialize PREFETCH FILTER
FILTER_SET: 1024

*** ChampSim Multicore Out-of-Order Simulator ***

Warmup Instructions: 50000000
Simulation Instructions: 50000000
Number of CPUs: 1
LLC sets: 2048
LLC ways: 16
Off-chip DRAM Size: 4096 MB Channels: 1 Width: 64-bit Data Rate: 3200 MT/s

CPU 0 runs /home/xubinfang/Desktop/ChampSim/dpc3_traces/server_030.champsimtrace.xz
CPU 0 Bimodal branch predictor
CPU 0 EPI prefetcher
CPU 0 L1D next line prefetcher
Heartbeat CPU 0 instructions: 10000003 cycles: 3505341 heartbeat IPC: 2.85279 cumulative IPC: 2.85279 (Simulation time: 0 hr 0 min 33 sec) 
Heartbeat CPU 0 instructions: 20000003 cycles: 7011533 heartbeat IPC: 2.8521 cumulative IPC: 2.85244 (Simulation time: 0 hr 1 min 4 sec) 
Heartbeat CPU 0 instructions: 30000000 cycles: 10516832 heartbeat IPC: 2.85282 cumulative IPC: 2.85257 (Simulation time: 0 hr 1 min 35 sec) 
Heartbeat CPU 0 instructions: 40000002 cycles: 14023217 heartbeat IPC: 2.85194 cumulative IPC: 2.85241 (Simulation time: 0 hr 2 min 6 sec) 
Heartbeat CPU 0 instructions: 50000002 cycles: 17532760 heartbeat IPC: 2.84937 cumulative IPC: 2.8518 (Simulation time: 0 hr 2 min 37 sec) 

Warmup complete CPU 0 instructions: 50000002 cycles: 17532760 (Simulation time: 0 hr 2 min 37 sec) 

Heartbeat CPU 0 instructions: 60000000 cycles: 25527077 heartbeat IPC: 1.25089 cumulative IPC: 1.25089 (Simulation time: 0 hr 3 min 5 sec) 
Heartbeat CPU 0 instructions: 70000000 cycles: 33537019 heartbeat IPC: 1.24845 cumulative IPC: 1.24967 (Simulation time: 0 hr 3 min 32 sec) 
Heartbeat CPU 0 instructions: 80000001 cycles: 41511374 heartbeat IPC: 1.25402 cumulative IPC: 1.25111 (Simulation time: 0 hr 4 min 0 sec) 
*** Reached end of trace for Core: 0 Repeating trace: /home/xubinfang/Desktop/ChampSim/dpc3_traces/server_030.champsimtrace.xz
Heartbeat CPU 0 instructions: 90000002 cycles: 49525582 heartbeat IPC: 1.24778 cumulative IPC: 1.25028 (Simulation time: 0 hr 4 min 30 sec) 
Heartbeat CPU 0 instructions: 100000002 cycles: 57511466 heartbeat IPC: 1.25221 cumulative IPC: 1.25067 (Simulation time: 0 hr 4 min 58 sec) 
Finished CPU 0 instructions: 50000000 cycles: 39978706 cumulative IPC: 1.25067 (Simulation time: 0 hr 4 min 58 sec) 

ChampSim completed all CPUs

Region of Interest Statistics

CPU 0 cumulative IPC: 1.25067 instructions: 50000000 cycles: 39978706
L1D TOTAL     ACCESS:   20559179  HIT:   18480429  MISS:    2078750
L1D LOAD      ACCESS:    7439709  HIT:    6394244  MISS:    1045465
L1D RFO       ACCESS:    6198387  HIT:    5911668  MISS:     286719
L1D PREFETCH  ACCESS:    6921083  HIT:    6174517  MISS:     746566
L1D WRITEBACK ACCESS:          0  HIT:          0  MISS:          0
L1D PREFETCH  REQUESTED:    7497806  ISSUED:    7395107  USEFUL:     189435  USELESS:     557225
L1D AVERAGE MISS LATENCY: 18.3765 cycles
L1I TOTAL     ACCESS:   27964420  HIT:   24482596  MISS:    3481824
L1I LOAD      ACCESS:    9458747  HIT:    9409249  MISS:      49498
L1I RFO       ACCESS:          0  HIT:          0  MISS:          0
L1I PREFETCH  ACCESS:   18505673  HIT:   15073347  MISS:    3432326
L1I WRITEBACK ACCESS:          0  HIT:          0  MISS:          0
L1I PREFETCH  REQUESTED:   22083730  ISSUED:   22083730  USEFUL:    2939759  USELESS:     492603
L1I AVERAGE MISS LATENCY: 18.1443 cycles
L2C TOTAL     ACCESS:    7861323  HIT:    7215569  MISS:     645754
L2C LOAD      ACCESS:     885351  HIT:     769763  MISS:     115588
L2C RFO       ACCESS:     283950  HIT:     222720  MISS:      61230
L2C PREFETCH  ACCESS:    6076529  HIT:    5610701  MISS:     465828
L2C WRITEBACK ACCESS:     615493  HIT:     612385  MISS:       3108
L2C PREFETCH  REQUESTED:    6541639  ISSUED:    6525061  USEFUL:      12003  USELESS:     453220
L2C AVERAGE MISS LATENCY: 34.8155 cycles
LLC TOTAL     ACCESS:    2391675  HIT:    2368699  MISS:      22976
LLC LOAD      ACCESS:     115283  HIT:     112433  MISS:       2850
LLC RFO       ACCESS:      61217  HIT:      59479  MISS:       1738
LLC PREFETCH  ACCESS:    2106142  HIT:    2087862  MISS:      18280
LLC WRITEBACK ACCESS:     109033  HIT:     108925  MISS:        108
LLC PREFETCH  REQUESTED:          0  ISSUED:          0  USEFUL:        830  USELESS:      15778
LLC AVERAGE MISS LATENCY: 147.788 cycles
Major fault: 0 Minor fault: 2040
CPU 0 L1I EPI prefetcher final stats
CPU 0 L1D next line prefetcher final stats

DRAM Statistics
 CHANNEL 0
 RQ ROW_BUFFER_HIT:       7006  ROW_BUFFER_MISS:      15862
 DBUS_CONGESTED:       6884
 WQ ROW_BUFFER_HIT:        185  ROW_BUFFER_MISS:       2596  FULL:          0

 AVG_CONGESTED_CYCLE: 5

CPU 0 Branch Prediction Accuracy: 92.4795% MPKI: 14.0962 Average ROB Occupancy at Mispredict: 66.2994

Branch types
NOT_BRANCH: 40627801 81.2556%
BRANCH_DIRECT_JUMP: 490940 0.98188%
BRANCH_INDIRECT: 175853 0.351706%
BRANCH_CONDITIONAL: 6321388 12.6428%
BRANCH_DIRECT_CALL: 1002065 2.00413%
BRANCH_INDIRECT_CALL: 189782 0.379564%
BRANCH_RETURN: 1191846 2.38369%
BRANCH_OTHER: 0 0%

