Initialize SIGNATURE TABLE
ST_SET: 1
ST_WAY: 256
ST_TAG_BIT: 16
ST_TAG_MASK: ffff

Initialize PATTERN TABLE
PT_SET: 512
PT_WAY: 4
SIG_DELTA_BIT: 7
C_SIG_BIT: 4
C_DELTA_BIT: 4

Initialize PREFETCH FILTER
FILTER_SET: 1024

*** ChampSim Multicore Out-of-Order Simulator ***

Warmup Instructions: 50000000
Simulation Instructions: 50000000
Number of CPUs: 1
LLC sets: 2048
LLC ways: 16
Off-chip DRAM Size: 4096 MB Channels: 1 Width: 64-bit Data Rate: 3200 MT/s

CPU 0 runs /home/xubinfang/Desktop/ChampSim/dpc3_traces/server_015.champsimtrace.xz
CPU 0 Bimodal branch predictor
CPU 0 EPI prefetcher
CPU 0 L1D next line prefetcher
Heartbeat CPU 0 instructions: 10000002 cycles: 3519408 heartbeat IPC: 2.84139 cumulative IPC: 2.84139 (Simulation time: 0 hr 0 min 30 sec) 
Heartbeat CPU 0 instructions: 20000001 cycles: 7107102 heartbeat IPC: 2.78731 cumulative IPC: 2.81409 (Simulation time: 0 hr 1 min 1 sec) 
Heartbeat CPU 0 instructions: 30000001 cycles: 10646064 heartbeat IPC: 2.82569 cumulative IPC: 2.81794 (Simulation time: 0 hr 1 min 37 sec) 
Heartbeat CPU 0 instructions: 40000002 cycles: 14194104 heartbeat IPC: 2.81846 cumulative IPC: 2.81807 (Simulation time: 0 hr 2 min 11 sec) 
Heartbeat CPU 0 instructions: 50000002 cycles: 17742364 heartbeat IPC: 2.81828 cumulative IPC: 2.81811 (Simulation time: 0 hr 2 min 44 sec) 

Warmup complete CPU 0 instructions: 50000002 cycles: 17742364 (Simulation time: 0 hr 2 min 44 sec) 

Heartbeat CPU 0 instructions: 60000002 cycles: 24332987 heartbeat IPC: 1.51731 cumulative IPC: 1.51731 (Simulation time: 0 hr 3 min 16 sec) 
Heartbeat CPU 0 instructions: 70000003 cycles: 30930126 heartbeat IPC: 1.51581 cumulative IPC: 1.51656 (Simulation time: 0 hr 3 min 47 sec) 
Heartbeat CPU 0 instructions: 80000000 cycles: 37525475 heartbeat IPC: 1.51622 cumulative IPC: 1.51644 (Simulation time: 0 hr 4 min 18 sec) 
Heartbeat CPU 0 instructions: 90000000 cycles: 44133531 heartbeat IPC: 1.5133 cumulative IPC: 1.51566 (Simulation time: 0 hr 4 min 48 sec) 
Heartbeat CPU 0 instructions: 100000002 cycles: 50737587 heartbeat IPC: 1.51422 cumulative IPC: 1.51537 (Simulation time: 0 hr 5 min 18 sec) 
Finished CPU 0 instructions: 50000000 cycles: 32995223 cumulative IPC: 1.51537 (Simulation time: 0 hr 5 min 18 sec) 

ChampSim completed all CPUs

Region of Interest Statistics

CPU 0 cumulative IPC: 1.51537 instructions: 50000000 cycles: 32995223
L1D TOTAL     ACCESS:   22384907  HIT:   22367092  MISS:      17815
L1D LOAD      ACCESS:    6960599  HIT:    6960064  MISS:        535
L1D RFO       ACCESS:    8570512  HIT:    8570415  MISS:         97
L1D PREFETCH  ACCESS:    6853796  HIT:    6836613  MISS:      17183
L1D WRITEBACK ACCESS:          0  HIT:          0  MISS:          0
L1D PREFETCH  REQUESTED:    6960670  ISSUED:    6859654  USEFUL:         83  USELESS:      17098
L1D AVERAGE MISS LATENCY: 16.4207 cycles
L1I TOTAL     ACCESS:   47209196  HIT:   44927154  MISS:    2282042
L1I LOAD      ACCESS:    9147569  HIT:    9113656  MISS:      33913
L1I RFO       ACCESS:          0  HIT:          0  MISS:          0
L1I PREFETCH  ACCESS:   38061627  HIT:   35813498  MISS:    2248129
L1I WRITEBACK ACCESS:          0  HIT:          0  MISS:          0
L1I PREFETCH  REQUESTED:   46703046  ISSUED:   46703046  USEFUL:    1757552  USELESS:     490593
L1I AVERAGE MISS LATENCY: 14.3983 cycles
L2C TOTAL     ACCESS:    3225960  HIT:    3225652  MISS:        308
L2C LOAD      ACCESS:      28634  HIT:      28567  MISS:         67
L2C RFO       ACCESS:         94  HIT:         92  MISS:          2
L2C PREFETCH  ACCESS:    3196882  HIT:    3196646  MISS:        236
L2C WRITEBACK ACCESS:        350  HIT:        347  MISS:          3
L2C PREFETCH  REQUESTED:    1813897  ISSUED:    1813857  USEFUL:         82  USELESS:        133
L2C AVERAGE MISS LATENCY: 126.925 cycles
LLC TOTAL     ACCESS:     244464  HIT:     243782  MISS:        682
LLC LOAD      ACCESS:         67  HIT:         52  MISS:         15
LLC RFO       ACCESS:          2  HIT:          0  MISS:          2
LLC PREFETCH  ACCESS:     244323  HIT:     243661  MISS:        662
LLC WRITEBACK ACCESS:         72  HIT:         69  MISS:          3
LLC PREFETCH  REQUESTED:          0  ISSUED:          0  USEFUL:          9  USELESS:        126
LLC AVERAGE MISS LATENCY: 440.55 cycles
Major fault: 0 Minor fault: 1888
CPU 0 L1I EPI prefetcher final stats
CPU 0 L1D next line prefetcher final stats

DRAM Statistics
 CHANNEL 0
 RQ ROW_BUFFER_HIT:        140  ROW_BUFFER_MISS:        539
 DBUS_CONGESTED:        486
 WQ ROW_BUFFER_HIT:         82  ROW_BUFFER_MISS:        397  FULL:          0

 AVG_CONGESTED_CYCLE: 6

CPU 0 Branch Prediction Accuracy: 97.5413% MPKI: 4.14374 Average ROB Occupancy at Mispredict: 103.673

Branch types
NOT_BRANCH: 41573036 83.1461%
BRANCH_DIRECT_JUMP: 436254 0.872508%
BRANCH_INDIRECT: 0 0%
BRANCH_CONDITIONAL: 5395886 10.7918%
BRANCH_DIRECT_CALL: 1173388 2.34678%
BRANCH_INDIRECT_CALL: 123910 0.24782%
BRANCH_RETURN: 1297308 2.59462%
BRANCH_OTHER: 0 0%

