Initialize SIGNATURE TABLE
ST_SET: 1
ST_WAY: 256
ST_TAG_BIT: 16
ST_TAG_MASK: ffff

Initialize PATTERN TABLE
PT_SET: 512
PT_WAY: 4
SIG_DELTA_BIT: 7
C_SIG_BIT: 4
C_DELTA_BIT: 4

Initialize PREFETCH FILTER
FILTER_SET: 1024

*** ChampSim Multicore Out-of-Order Simulator ***

Warmup Instructions: 50000000
Simulation Instructions: 50000000
Number of CPUs: 1
LLC sets: 2048
LLC ways: 16
Off-chip DRAM Size: 4096 MB Channels: 1 Width: 64-bit Data Rate: 3200 MT/s

CPU 0 runs /home/xubinfang/Desktop/ChampSim/dpc3_traces/spec_gcc_003.champsimtrace.xz
CPU 0 Bimodal branch predictor
CPU 0 EPI prefetcher
CPU 0 L1D next line prefetcher
Heartbeat CPU 0 instructions: 10000001 cycles: 3496658 heartbeat IPC: 2.85987 cumulative IPC: 2.85987 (Simulation time: 0 hr 0 min 26 sec) 
Heartbeat CPU 0 instructions: 20000000 cycles: 6968781 heartbeat IPC: 2.88008 cumulative IPC: 2.86994 (Simulation time: 0 hr 0 min 49 sec) 
Heartbeat CPU 0 instructions: 30000002 cycles: 10423596 heartbeat IPC: 2.89451 cumulative IPC: 2.87809 (Simulation time: 0 hr 1 min 13 sec) 
Heartbeat CPU 0 instructions: 40000000 cycles: 13907932 heartbeat IPC: 2.86999 cumulative IPC: 2.87606 (Simulation time: 0 hr 1 min 39 sec) 
Heartbeat CPU 0 instructions: 50000001 cycles: 17227759 heartbeat IPC: 3.01221 cumulative IPC: 2.90229 (Simulation time: 0 hr 2 min 5 sec) 

Warmup complete CPU 0 instructions: 50000001 cycles: 17227759 (Simulation time: 0 hr 2 min 5 sec) 

Heartbeat CPU 0 instructions: 60000000 cycles: 58181924 heartbeat IPC: 0.244175 cumulative IPC: 0.244175 (Simulation time: 0 hr 3 min 1 sec) 
Heartbeat CPU 0 instructions: 70000000 cycles: 101985012 heartbeat IPC: 0.228294 cumulative IPC: 0.235968 (Simulation time: 0 hr 4 min 1 sec) 
Heartbeat CPU 0 instructions: 80000002 cycles: 146472048 heartbeat IPC: 0.224785 cumulative IPC: 0.232119 (Simulation time: 0 hr 5 min 2 sec) 
Heartbeat CPU 0 instructions: 90000002 cycles: 183906945 heartbeat IPC: 0.26713 cumulative IPC: 0.239982 (Simulation time: 0 hr 5 min 53 sec) 
Heartbeat CPU 0 instructions: 100000001 cycles: 230775513 heartbeat IPC: 0.213363 cumulative IPC: 0.23414 (Simulation time: 0 hr 6 min 54 sec) 
Finished CPU 0 instructions: 50000000 cycles: 213547754 cumulative IPC: 0.23414 (Simulation time: 0 hr 6 min 54 sec) 

ChampSim completed all CPUs

Region of Interest Statistics

CPU 0 cumulative IPC: 0.23414 instructions: 50000000 cycles: 213547754
L1D TOTAL     ACCESS:   17455640  HIT:   11731071  MISS:    5724569
L1D LOAD      ACCESS:    4838944  HIT:    4456897  MISS:     382047
L1D RFO       ACCESS:    8262471  HIT:    3210960  MISS:    5051511
L1D PREFETCH  ACCESS:    4354225  HIT:    4063214  MISS:     291011
L1D WRITEBACK ACCESS:          0  HIT:          0  MISS:          0
L1D PREFETCH  REQUESTED:    4858746  ISSUED:    4802197  USEFUL:     153331  USELESS:     137860
L1D AVERAGE MISS LATENCY: 504.85 cycles
L1I TOTAL     ACCESS:   29992578  HIT:   28751488  MISS:    1241090
L1I LOAD      ACCESS:   11303395  HIT:   11254574  MISS:      48821
L1I RFO       ACCESS:          0  HIT:          0  MISS:          0
L1I PREFETCH  ACCESS:   18689183  HIT:   17496914  MISS:    1192269
L1I WRITEBACK ACCESS:          0  HIT:          0  MISS:          0
L1I PREFETCH  REQUESTED:   26601568  ISSUED:   26601568  USEFUL:     777779  USELESS:     414393
L1I AVERAGE MISS LATENCY: 67.6872 cycles
L2C TOTAL     ACCESS:   12469397  HIT:    6403102  MISS:    6066295
L2C LOAD      ACCESS:     234279  HIT:      64281  MISS:     169998
L2C RFO       ACCESS:    5049895  HIT:       6595  MISS:    5043300
L2C PREFETCH  ACCESS:    2027320  HIT:    1174739  MISS:     852581
L2C WRITEBACK ACCESS:    5157903  HIT:    5157487  MISS:        416
L2C PREFETCH  REQUESTED:    2274821  ISSUED:    2274751  USEFUL:      25031  USELESS:     824627
L2C AVERAGE MISS LATENCY: 475.653 cycles
LLC TOTAL     ACCESS:   11996210  HIT:    7246125  MISS:    4750085
LLC LOAD      ACCESS:     169959  HIT:     127134  MISS:      42825
LLC RFO       ACCESS:    5043300  HIT:     612806  MISS:    4430494
LLC PREFETCH  ACCESS:    1649209  HIT:    1372443  MISS:     276766
LLC WRITEBACK ACCESS:    5133742  HIT:    5133742  MISS:          0
LLC PREFETCH  REQUESTED:          0  ISSUED:          0  USEFUL:      12263  USELESS:     264348
LLC AVERAGE MISS LATENCY: 577.16 cycles
Major fault: 0 Minor fault: 2821
CPU 0 L1I EPI prefetcher final stats
CPU 0 L1D next line prefetcher final stats

DRAM Statistics
 CHANNEL 0
 RQ ROW_BUFFER_HIT:    1436385  ROW_BUFFER_MISS:    3313662
 DBUS_CONGESTED:    8236528
 WQ ROW_BUFFER_HIT:    1188030  ROW_BUFFER_MISS:    3271537  FULL:          0

 AVG_CONGESTED_CYCLE: 6

CPU 0 Branch Prediction Accuracy: 96.3569% MPKI: 8.52058 Average ROB Occupancy at Mispredict: 56.9605

Branch types
NOT_BRANCH: 38305856 76.6117%
BRANCH_DIRECT_JUMP: 384281 0.768562%
BRANCH_INDIRECT: 71949 0.143898%
BRANCH_CONDITIONAL: 9879825 19.7597%
BRANCH_DIRECT_CALL: 650586 1.30117%
BRANCH_INDIRECT_CALL: 28456 0.056912%
BRANCH_RETURN: 679046 1.35809%
BRANCH_OTHER: 0 0%

