Initialize SIGNATURE TABLE
ST_SET: 1
ST_WAY: 256
ST_TAG_BIT: 16
ST_TAG_MASK: ffff

Initialize PATTERN TABLE
PT_SET: 512
PT_WAY: 4
SIG_DELTA_BIT: 7
C_SIG_BIT: 4
C_DELTA_BIT: 4

Initialize PREFETCH FILTER
FILTER_SET: 1024

*** ChampSim Multicore Out-of-Order Simulator ***

Warmup Instructions: 50000000
Simulation Instructions: 50000000
Number of CPUs: 1
LLC sets: 2048
LLC ways: 16
Off-chip DRAM Size: 4096 MB Channels: 1 Width: 64-bit Data Rate: 3200 MT/s

CPU 0 runs /home/xubinfang/Desktop/ChampSim/dpc3_traces/spec_gcc_002.champsimtrace.xz
CPU 0 Bimodal branch predictor
CPU 0 EPI prefetcher
CPU 0 L1D next line prefetcher
Heartbeat CPU 0 instructions: 10000002 cycles: 3548634 heartbeat IPC: 2.81799 cumulative IPC: 2.81799 (Simulation time: 0 hr 0 min 27 sec) 
Heartbeat CPU 0 instructions: 20000000 cycles: 7121676 heartbeat IPC: 2.79874 cumulative IPC: 2.80833 (Simulation time: 0 hr 0 min 52 sec) 
Heartbeat CPU 0 instructions: 30000000 cycles: 10746367 heartbeat IPC: 2.75886 cumulative IPC: 2.79164 (Simulation time: 0 hr 1 min 20 sec) 
Heartbeat CPU 0 instructions: 40000000 cycles: 14295949 heartbeat IPC: 2.81723 cumulative IPC: 2.798 (Simulation time: 0 hr 1 min 45 sec) 
Heartbeat CPU 0 instructions: 50000002 cycles: 17778725 heartbeat IPC: 2.87127 cumulative IPC: 2.81235 (Simulation time: 0 hr 2 min 8 sec) 

Warmup complete CPU 0 instructions: 50000002 cycles: 17778725 (Simulation time: 0 hr 2 min 8 sec) 

Heartbeat CPU 0 instructions: 60000002 cycles: 58377318 heartbeat IPC: 0.246314 cumulative IPC: 0.246314 (Simulation time: 0 hr 3 min 5 sec) 
Heartbeat CPU 0 instructions: 70000001 cycles: 90855641 heartbeat IPC: 0.307898 cumulative IPC: 0.273684 (Simulation time: 0 hr 3 min 54 sec) 
Heartbeat CPU 0 instructions: 80000002 cycles: 140158405 heartbeat IPC: 0.202828 cumulative IPC: 0.245139 (Simulation time: 0 hr 4 min 55 sec) 
Heartbeat CPU 0 instructions: 90000001 cycles: 185235772 heartbeat IPC: 0.221841 cumulative IPC: 0.238867 (Simulation time: 0 hr 5 min 54 sec) 
Heartbeat CPU 0 instructions: 100000000 cycles: 217716503 heartbeat IPC: 0.307875 cumulative IPC: 0.250078 (Simulation time: 0 hr 6 min 42 sec) 
Finished CPU 0 instructions: 50000002 cycles: 199938160 cumulative IPC: 0.250077 (Simulation time: 0 hr 6 min 42 sec) 

ChampSim completed all CPUs

Region of Interest Statistics

CPU 0 cumulative IPC: 0.250077 instructions: 50000002 cycles: 199938160
L1D TOTAL     ACCESS:   18854967  HIT:   13621043  MISS:    5233924
L1D LOAD      ACCESS:    6646670  HIT:    5588493  MISS:    1058177
L1D RFO       ACCESS:    7072858  HIT:    3472056  MISS:    3600802
L1D PREFETCH  ACCESS:    5135439  HIT:    4560494  MISS:     574945
L1D WRITEBACK ACCESS:          0  HIT:          0  MISS:          0
L1D PREFETCH  REQUESTED:    6669147  ISSUED:    6603209  USEFUL:     415010  USELESS:     160151
L1D AVERAGE MISS LATENCY: 334.634 cycles
L1I TOTAL     ACCESS:   33923677  HIT:   32907003  MISS:    1016674
L1I LOAD      ACCESS:   12084265  HIT:   12040570  MISS:      43695
L1I RFO       ACCESS:          0  HIT:          0  MISS:          0
L1I PREFETCH  ACCESS:   21839412  HIT:   20866433  MISS:     972979
L1I WRITEBACK ACCESS:          0  HIT:          0  MISS:          0
L1I PREFETCH  REQUESTED:   30489923  ISSUED:   30489923  USEFUL:     631680  USELESS:     341299
L1I AVERAGE MISS LATENCY: 73.6979 cycles
L2C TOTAL     ACCESS:   10384132  HIT:    5063299  MISS:    5320833
L2C LOAD      ACCESS:     278536  HIT:     118858  MISS:     159678
L2C RFO       ACCESS:    3599251  HIT:      12190  MISS:    3587061
L2C PREFETCH  ACCESS:    2780771  HIT:    1206773  MISS:    1573998
L2C WRITEBACK ACCESS:    3725574  HIT:    3725478  MISS:         96
L2C PREFETCH  REQUESTED:    3264418  ISSUED:    3264304  USEFUL:      26205  USELESS:    1547863
L2C AVERAGE MISS LATENCY: 346.24 cycles
LLC TOTAL     ACCESS:    9995675  HIT:    6124198  MISS:    3871477
LLC LOAD      ACCESS:     159499  HIT:      94407  MISS:      65092
LLC RFO       ACCESS:    3587058  HIT:     592551  MISS:    2994507
LLC PREFETCH  ACCESS:    2582338  HIT:    1770460  MISS:     811878
LLC WRITEBACK ACCESS:    3666780  HIT:    3666780  MISS:          0
LLC PREFETCH  REQUESTED:          0  ISSUED:          0  USEFUL:     139404  USELESS:     667690
LLC AVERAGE MISS LATENCY: 457.753 cycles
Major fault: 0 Minor fault: 4158
CPU 0 L1I EPI prefetcher final stats
CPU 0 L1D next line prefetcher final stats

DRAM Statistics
 CHANNEL 0
 RQ ROW_BUFFER_HIT:    1014649  ROW_BUFFER_MISS:    2854805
 DBUS_CONGESTED:    5544277
 WQ ROW_BUFFER_HIT:     937004  ROW_BUFFER_MISS:    2230437  FULL:          0

 AVG_CONGESTED_CYCLE: 6

CPU 0 Branch Prediction Accuracy: 95.6987% MPKI: 8.83756 Average ROB Occupancy at Mispredict: 60.5864

Branch types
NOT_BRANCH: 39726800 79.4536%
BRANCH_DIRECT_JUMP: 391438 0.782876%
BRANCH_INDIRECT: 62076 0.124152%
BRANCH_CONDITIONAL: 8421539 16.8431%
BRANCH_DIRECT_CALL: 672962 1.34592%
BRANCH_INDIRECT_CALL: 26115 0.05223%
BRANCH_RETURN: 699082 1.39816%
BRANCH_OTHER: 0 0%

