Initialize SIGNATURE TABLE
ST_SET: 1
ST_WAY: 256
ST_TAG_BIT: 16
ST_TAG_MASK: ffff

Initialize PATTERN TABLE
PT_SET: 512
PT_WAY: 4
SIG_DELTA_BIT: 7
C_SIG_BIT: 4
C_DELTA_BIT: 4

Initialize PREFETCH FILTER
FILTER_SET: 1024

*** ChampSim Multicore Out-of-Order Simulator ***

Warmup Instructions: 50000000
Simulation Instructions: 50000000
Number of CPUs: 1
LLC sets: 2048
LLC ways: 16
Off-chip DRAM Size: 4096 MB Channels: 1 Width: 64-bit Data Rate: 3200 MT/s

CPU 0 runs /home/yuc621/Champsim/dpc3_traces/server_036.champsimtrace.xz
CPU 0 Bimodal branch predictor
CPU 0 EPI prefetcher
CPU 0 L1D next line prefetcher
Heartbeat CPU 0 instructions: 10000000 cycles: 3459003 heartbeat IPC: 2.89101 cumulative IPC: 2.89101 (Simulation time: 0 hr 0 min 29 sec) 
Heartbeat CPU 0 instructions: 20000000 cycles: 6924800 heartbeat IPC: 2.88534 cumulative IPC: 2.88817 (Simulation time: 0 hr 0 min 59 sec) 
Heartbeat CPU 0 instructions: 30000003 cycles: 10433008 heartbeat IPC: 2.85046 cumulative IPC: 2.87549 (Simulation time: 0 hr 1 min 28 sec) 
Heartbeat CPU 0 instructions: 40000000 cycles: 13895526 heartbeat IPC: 2.88807 cumulative IPC: 2.87862 (Simulation time: 0 hr 1 min 58 sec) 
Heartbeat CPU 0 instructions: 50000002 cycles: 17357215 heartbeat IPC: 2.88876 cumulative IPC: 2.88065 (Simulation time: 0 hr 2 min 28 sec) 

Warmup complete CPU 0 instructions: 50000002 cycles: 17357215 (Simulation time: 0 hr 2 min 28 sec) 

Heartbeat CPU 0 instructions: 60000000 cycles: 23559159 heartbeat IPC: 1.6124 cumulative IPC: 1.6124 (Simulation time: 0 hr 2 min 55 sec) 
Heartbeat CPU 0 instructions: 70000001 cycles: 29704902 heartbeat IPC: 1.62714 cumulative IPC: 1.61974 (Simulation time: 0 hr 3 min 20 sec) 
Heartbeat CPU 0 instructions: 80000001 cycles: 35873528 heartbeat IPC: 1.62111 cumulative IPC: 1.62019 (Simulation time: 0 hr 3 min 46 sec) 
Heartbeat CPU 0 instructions: 90000002 cycles: 42012952 heartbeat IPC: 1.62882 cumulative IPC: 1.62234 (Simulation time: 0 hr 4 min 12 sec) 
Heartbeat CPU 0 instructions: 100000001 cycles: 48150332 heartbeat IPC: 1.62936 cumulative IPC: 1.62374 (Simulation time: 0 hr 4 min 39 sec) 
Finished CPU 0 instructions: 50000003 cycles: 30793118 cumulative IPC: 1.62374 (Simulation time: 0 hr 4 min 39 sec) 

ChampSim completed all CPUs

Region of Interest Statistics

CPU 0 cumulative IPC: 1.62374 instructions: 50000003 cycles: 30793118
L1D TOTAL     ACCESS:   21753892  HIT:   21693403  MISS:      60489
L1D LOAD      ACCESS:    7275529  HIT:    7240520  MISS:      35009
L1D RFO       ACCESS:    7372328  HIT:    7365061  MISS:       7267
L1D PREFETCH  ACCESS:    7106035  HIT:    7087822  MISS:      18213
L1D WRITEBACK ACCESS:          0  HIT:          0  MISS:          0
L1D PREFETCH  REQUESTED:    7276537  ISSUED:    7135890  USEFUL:       5464  USELESS:      12750
L1D AVERAGE MISS LATENCY: 18.1325 cycles
L1I TOTAL     ACCESS:   42956502  HIT:   38794474  MISS:    4162028
L1I LOAD      ACCESS:    8914564  HIT:    8887612  MISS:      26952
L1I RFO       ACCESS:          0  HIT:          0  MISS:          0
L1I PREFETCH  ACCESS:   34041938  HIT:   29906862  MISS:    4135076
L1I WRITEBACK ACCESS:          0  HIT:          0  MISS:          0
L1I PREFETCH  REQUESTED:   41436385  ISSUED:   41436385  USEFUL:    3676126  USELESS:     458968
L1I AVERAGE MISS LATENCY: 14.7384 cycles
L2C TOTAL     ACCESS:    6966212  HIT:    6963841  MISS:       2371
L2C LOAD      ACCESS:      52887  HIT:      52568  MISS:        319
L2C RFO       ACCESS:       7261  HIT:       7206  MISS:         55
L2C PREFETCH  ACCESS:    6890424  HIT:    6888452  MISS:       1972
L2C WRITEBACK ACCESS:      15640  HIT:      15615  MISS:         25
L2C PREFETCH  REQUESTED:    6054051  ISSUED:    6052546  USEFUL:        153  USELESS:       1058
L2C AVERAGE MISS LATENCY: 192.217 cycles
LLC TOTAL     ACCESS:     420892  HIT:     417966  MISS:       2926
LLC LOAD      ACCESS:        319  HIT:        118  MISS:        201
LLC RFO       ACCESS:         55  HIT:         27  MISS:         28
LLC PREFETCH  ACCESS:     419431  HIT:     416738  MISS:       2693
LLC WRITEBACK ACCESS:       1087  HIT:       1083  MISS:          4
LLC PREFETCH  REQUESTED:          0  ISSUED:          0  USEFUL:         53  USELESS:        560
LLC AVERAGE MISS LATENCY: 366.334 cycles
Major fault: 0 Minor fault: 1926
CPU 0 L1I EPI prefetcher final stats
CPU 0 L1D next line prefetcher final stats

DRAM Statistics
 CHANNEL 0
 RQ ROW_BUFFER_HIT:        695  ROW_BUFFER_MISS:       2227
 DBUS_CONGESTED:       1944
 WQ ROW_BUFFER_HIT:        305  ROW_BUFFER_MISS:       1731  FULL:          0

 AVG_CONGESTED_CYCLE: 6

CPU 0 Branch Prediction Accuracy: 96.3055% MPKI: 6.09676 Average ROB Occupancy at Mispredict: 66.0432

Branch types
NOT_BRANCH: 41748418 83.4968%
BRANCH_DIRECT_JUMP: 468563 0.937126%
BRANCH_INDIRECT: 0 0%
BRANCH_CONDITIONAL: 5599748 11.1995%
BRANCH_DIRECT_CALL: 885105 1.77021%
BRANCH_INDIRECT_CALL: 206338 0.412676%
BRANCH_RETURN: 1091467 2.18293%
BRANCH_OTHER: 0 0%

