Initialize SIGNATURE TABLE
ST_SET: 1
ST_WAY: 256
ST_TAG_BIT: 16
ST_TAG_MASK: ffff

Initialize PATTERN TABLE
PT_SET: 512
PT_WAY: 4
SIG_DELTA_BIT: 7
C_SIG_BIT: 4
C_DELTA_BIT: 4

Initialize PREFETCH FILTER
FILTER_SET: 1024

*** ChampSim Multicore Out-of-Order Simulator ***

Warmup Instructions: 50000000
Simulation Instructions: 50000000
Number of CPUs: 1
LLC sets: 2048
LLC ways: 16
Off-chip DRAM Size: 4096 MB Channels: 1 Width: 64-bit Data Rate: 3200 MT/s

CPU 0 runs /home/yuc621/Champsim/dpc3_traces/server_024.champsimtrace.xz
CPU 0 Bimodal branch predictor
CPU 0 EPI prefetcher
CPU 0 L1D next line prefetcher
Heartbeat CPU 0 instructions: 10000000 cycles: 3498823 heartbeat IPC: 2.8581 cumulative IPC: 2.8581 (Simulation time: 0 hr 0 min 27 sec) 
Heartbeat CPU 0 instructions: 20000002 cycles: 6989830 heartbeat IPC: 2.8645 cumulative IPC: 2.8613 (Simulation time: 0 hr 0 min 54 sec) 
Heartbeat CPU 0 instructions: 30000000 cycles: 10491344 heartbeat IPC: 2.85591 cumulative IPC: 2.8595 (Simulation time: 0 hr 1 min 22 sec) 
Heartbeat CPU 0 instructions: 40000000 cycles: 13990660 heartbeat IPC: 2.8577 cumulative IPC: 2.85905 (Simulation time: 0 hr 1 min 49 sec) 
Heartbeat CPU 0 instructions: 50000001 cycles: 17479715 heartbeat IPC: 2.86611 cumulative IPC: 2.86046 (Simulation time: 0 hr 2 min 16 sec) 

Warmup complete CPU 0 instructions: 50000001 cycles: 17479715 (Simulation time: 0 hr 2 min 16 sec) 

Heartbeat CPU 0 instructions: 60000000 cycles: 25314377 heartbeat IPC: 1.27638 cumulative IPC: 1.27638 (Simulation time: 0 hr 2 min 40 sec) 
Heartbeat CPU 0 instructions: 70000000 cycles: 33180814 heartbeat IPC: 1.27122 cumulative IPC: 1.2738 (Simulation time: 0 hr 3 min 4 sec) 
*** Reached end of trace for Core: 0 Repeating trace: /home/yuc621/Champsim/dpc3_traces/server_024.champsimtrace.xz
Heartbeat CPU 0 instructions: 80000003 cycles: 41030408 heartbeat IPC: 1.27395 cumulative IPC: 1.27385 (Simulation time: 0 hr 3 min 27 sec) 
Heartbeat CPU 0 instructions: 90000000 cycles: 48918994 heartbeat IPC: 1.26765 cumulative IPC: 1.27229 (Simulation time: 0 hr 3 min 51 sec) 
Heartbeat CPU 0 instructions: 100000002 cycles: 56779475 heartbeat IPC: 1.27219 cumulative IPC: 1.27227 (Simulation time: 0 hr 4 min 15 sec) 
Finished CPU 0 instructions: 50000001 cycles: 39299760 cumulative IPC: 1.27227 (Simulation time: 0 hr 4 min 15 sec) 

ChampSim completed all CPUs

Region of Interest Statistics

CPU 0 cumulative IPC: 1.27227 instructions: 50000001 cycles: 39299760
L1D TOTAL     ACCESS:   21141374  HIT:   19622116  MISS:    1519258
L1D LOAD      ACCESS:    7639347  HIT:    6963670  MISS:     675677
L1D RFO       ACCESS:    6177027  HIT:    5903054  MISS:     273973
L1D PREFETCH  ACCESS:    7325000  HIT:    6755392  MISS:     569608
L1D WRITEBACK ACCESS:          0  HIT:          0  MISS:          0
L1D PREFETCH  REQUESTED:    7698926  ISSUED:    7593505  USEFUL:     141142  USELESS:     428469
L1D AVERAGE MISS LATENCY: 24.8709 cycles
L1I TOTAL     ACCESS:   28416294  HIT:   25370194  MISS:    3046100
L1I LOAD      ACCESS:    9073816  HIT:    9025640  MISS:      48176
L1I RFO       ACCESS:          0  HIT:          0  MISS:          0
L1I PREFETCH  ACCESS:   19342478  HIT:   16344554  MISS:    2997924
L1I WRITEBACK ACCESS:          0  HIT:          0  MISS:          0
L1I PREFETCH  REQUESTED:   24136017  ISSUED:   24136017  USEFUL:    2503644  USELESS:     494264
L1I AVERAGE MISS LATENCY: 19.2346 cycles
L2C TOTAL     ACCESS:    6216598  HIT:    5492481  MISS:     724117
L2C LOAD      ACCESS:     622043  HIT:     506301  MISS:     115742
L2C RFO       ACCESS:     272123  HIT:     184719  MISS:      87404
L2C PREFETCH  ACCESS:    4802210  HIT:    4284416  MISS:     517794
L2C WRITEBACK ACCESS:     520222  HIT:     517045  MISS:       3177
L2C PREFETCH  REQUESTED:    4998887  ISSUED:    4994325  USEFUL:      13974  USELESS:     503072
L2C AVERAGE MISS LATENCY: 43.7735 cycles
LLC TOTAL     ACCESS:    2245949  HIT:    2189669  MISS:      56280
LLC LOAD      ACCESS:     115542  HIT:     109894  MISS:       5648
LLC RFO       ACCESS:      87403  HIT:      65324  MISS:      22079
LLC PREFETCH  ACCESS:    1903382  HIT:    1875131  MISS:      28251
LLC WRITEBACK ACCESS:     139622  HIT:     139320  MISS:        302
LLC PREFETCH  REQUESTED:          0  ISSUED:          0  USEFUL:       2207  USELESS:      25587
LLC AVERAGE MISS LATENCY: 193.819 cycles
Major fault: 0 Minor fault: 2366
CPU 0 L1I EPI prefetcher final stats
CPU 0 L1D next line prefetcher final stats

DRAM Statistics
 CHANNEL 0
 RQ ROW_BUFFER_HIT:      18597  ROW_BUFFER_MISS:      37376
 DBUS_CONGESTED:      38376
 WQ ROW_BUFFER_HIT:       2672  ROW_BUFFER_MISS:      23192  FULL:          0

 AVG_CONGESTED_CYCLE: 6

CPU 0 Branch Prediction Accuracy: 91.8907% MPKI: 14.8338 Average ROB Occupancy at Mispredict: 61.5963

Branch types
NOT_BRANCH: 40853572 81.7071%
BRANCH_DIRECT_JUMP: 566812 1.13362%
BRANCH_INDIRECT: 197171 0.394342%
BRANCH_CONDITIONAL: 6308397 12.6168%
BRANCH_DIRECT_CALL: 876399 1.7528%
BRANCH_INDIRECT_CALL: 160491 0.320982%
BRANCH_RETURN: 1036885 2.07377%
BRANCH_OTHER: 0 0%

