Initialize SIGNATURE TABLE
ST_SET: 1
ST_WAY: 256
ST_TAG_BIT: 16
ST_TAG_MASK: ffff

Initialize PATTERN TABLE
PT_SET: 512
PT_WAY: 4
SIG_DELTA_BIT: 7
C_SIG_BIT: 4
C_DELTA_BIT: 4

Initialize PREFETCH FILTER
FILTER_SET: 1024

*** ChampSim Multicore Out-of-Order Simulator ***

Warmup Instructions: 50000000
Simulation Instructions: 50000000
Number of CPUs: 1
LLC sets: 2048
LLC ways: 16
Off-chip DRAM Size: 4096 MB Channels: 1 Width: 64-bit Data Rate: 3200 MT/s

CPU 0 runs /home/yuc621/Champsim/dpc3_traces/server_009.champsimtrace.xz
CPU 0 Bimodal branch predictor
CPU 0 EPI prefetcher
CPU 0 L1D next line prefetcher
Heartbeat CPU 0 instructions: 10000003 cycles: 3200134 heartbeat IPC: 3.12487 cumulative IPC: 3.12487 (Simulation time: 0 hr 0 min 26 sec) 
Heartbeat CPU 0 instructions: 20000001 cycles: 6392958 heartbeat IPC: 3.13202 cumulative IPC: 3.12844 (Simulation time: 0 hr 0 min 52 sec) 
Heartbeat CPU 0 instructions: 30000002 cycles: 9600628 heartbeat IPC: 3.11753 cumulative IPC: 3.1248 (Simulation time: 0 hr 1 min 19 sec) 
Heartbeat CPU 0 instructions: 40000003 cycles: 12804083 heartbeat IPC: 3.12163 cumulative IPC: 3.124 (Simulation time: 0 hr 1 min 45 sec) 
Heartbeat CPU 0 instructions: 50000000 cycles: 16064451 heartbeat IPC: 3.06714 cumulative IPC: 3.11246 (Simulation time: 0 hr 2 min 12 sec) 

Warmup complete CPU 0 instructions: 50000004 cycles: 16064452 (Simulation time: 0 hr 2 min 12 sec) 

Heartbeat CPU 0 instructions: 60000001 cycles: 32336980 heartbeat IPC: 0.614533 cumulative IPC: 0.614532 (Simulation time: 0 hr 2 min 44 sec) 
Heartbeat CPU 0 instructions: 70000003 cycles: 53842648 heartbeat IPC: 0.464994 cumulative IPC: 0.529406 (Simulation time: 0 hr 3 min 23 sec) 
Heartbeat CPU 0 instructions: 80000000 cycles: 61798340 heartbeat IPC: 1.25696 cumulative IPC: 0.655969 (Simulation time: 0 hr 3 min 46 sec) 
Heartbeat CPU 0 instructions: 90000001 cycles: 69912787 heartbeat IPC: 1.23237 cumulative IPC: 0.742827 (Simulation time: 0 hr 4 min 9 sec) 
Heartbeat CPU 0 instructions: 100000001 cycles: 77916908 heartbeat IPC: 1.24936 cumulative IPC: 0.808375 (Simulation time: 0 hr 4 min 32 sec) 
Finished CPU 0 instructions: 50000000 cycles: 61852457 cumulative IPC: 0.808375 (Simulation time: 0 hr 4 min 32 sec) 

ChampSim completed all CPUs

Region of Interest Statistics

CPU 0 cumulative IPC: 0.808375 instructions: 50000000 cycles: 61852457
L1D TOTAL     ACCESS:   22319414  HIT:   17738776  MISS:    4580638
L1D LOAD      ACCESS:    8964232  HIT:    6687731  MISS:    2276501
L1D RFO       ACCESS:    4598715  HIT:    4493953  MISS:     104762
L1D PREFETCH  ACCESS:    8756467  HIT:    6557092  MISS:    2199375
L1D WRITEBACK ACCESS:          0  HIT:          0  MISS:          0
L1D PREFETCH  REQUESTED:    8999156  ISSUED:    8900609  USEFUL:     110052  USELESS:    2089322
L1D AVERAGE MISS LATENCY: 20.2101 cycles
L1I TOTAL     ACCESS:   38276492  HIT:   36881753  MISS:    1394739
L1I LOAD      ACCESS:    9754902  HIT:    9726062  MISS:      28840
L1I RFO       ACCESS:          0  HIT:          0  MISS:          0
L1I PREFETCH  ACCESS:   28521590  HIT:   27155691  MISS:    1365899
L1I WRITEBACK ACCESS:          0  HIT:          0  MISS:          0
L1I PREFETCH  REQUESTED:   41440525  ISSUED:   41440525  USEFUL:    1057109  USELESS:     308856
L1I AVERAGE MISS LATENCY: 34.3616 cycles
L2C TOTAL     ACCESS:    7621448  HIT:    6587898  MISS:    1033550
L2C LOAD      ACCESS:    2273217  HIT:    2070614  MISS:     202603
L2C RFO       ACCESS:     103641  HIT:      63978  MISS:      39663
L2C PREFETCH  ACCESS:    4987675  HIT:    4197637  MISS:     790038
L2C WRITEBACK ACCESS:     256915  HIT:     255669  MISS:       1246
L2C PREFETCH  REQUESTED:    7813762  ISSUED:    7810374  USEFUL:      18614  USELESS:     769921
L2C AVERAGE MISS LATENCY: 47.8254 cycles
LLC TOTAL     ACCESS:    2333770  HIT:    2199062  MISS:     134708
LLC LOAD      ACCESS:     202338  HIT:     184207  MISS:      18131
LLC RFO       ACCESS:      39658  HIT:      30996  MISS:       8662
LLC PREFETCH  ACCESS:    1955372  HIT:    1847729  MISS:     107643
LLC WRITEBACK ACCESS:     136402  HIT:     136130  MISS:        272
LLC PREFETCH  REQUESTED:          0  ISSUED:          0  USEFUL:       9354  USELESS:      95166
LLC AVERAGE MISS LATENCY: 173.44 cycles
Major fault: 0 Minor fault: 6358
CPU 0 L1I EPI prefetcher final stats
CPU 0 L1D next line prefetcher final stats

DRAM Statistics
 CHANNEL 0
 RQ ROW_BUFFER_HIT:      26798  ROW_BUFFER_MISS:     107633
 DBUS_CONGESTED:      59520
 WQ ROW_BUFFER_HIT:       8170  ROW_BUFFER_MISS:      38378  FULL:          0

 AVG_CONGESTED_CYCLE: 5

CPU 0 Branch Prediction Accuracy: 94.3582% MPKI: 11.8964 Average ROB Occupancy at Mispredict: 66.0855

Branch types
NOT_BRANCH: 39456587 78.9132%
BRANCH_DIRECT_JUMP: 445350 0.8907%
BRANCH_INDIRECT: 131149 0.262298%
BRANCH_CONDITIONAL: 8130188 16.2604%
BRANCH_DIRECT_CALL: 732485 1.46497%
BRANCH_INDIRECT_CALL: 172369 0.344738%
BRANCH_RETURN: 931558 1.86312%
BRANCH_OTHER: 0 0%

