Initialize SIGNATURE TABLE
ST_SET: 1
ST_WAY: 256
ST_TAG_BIT: 16
ST_TAG_MASK: ffff

Initialize PATTERN TABLE
PT_SET: 512
PT_WAY: 4
SIG_DELTA_BIT: 7
C_SIG_BIT: 4
C_DELTA_BIT: 4

Initialize PREFETCH FILTER
FILTER_SET: 1024

*** ChampSim Multicore Out-of-Order Simulator ***

Warmup Instructions: 50000000
Simulation Instructions: 50000000
Number of CPUs: 1
LLC sets: 2048
LLC ways: 16
Off-chip DRAM Size: 4096 MB Channels: 1 Width: 64-bit Data Rate: 3200 MT/s

CPU 0 runs /home/yuc621/Champsim/dpc3_traces/spec_gcc_001.champsimtrace.xz
CPU 0 Bimodal branch predictor
CPU 0 EPI prefetcher
CPU 0 L1D next line prefetcher
Heartbeat CPU 0 instructions: 10000003 cycles: 3219467 heartbeat IPC: 3.10611 cumulative IPC: 3.10611 (Simulation time: 0 hr 0 min 26 sec) 
Heartbeat CPU 0 instructions: 20000002 cycles: 6464315 heartbeat IPC: 3.08181 cumulative IPC: 3.09391 (Simulation time: 0 hr 0 min 53 sec) 
Heartbeat CPU 0 instructions: 30000000 cycles: 9665496 heartbeat IPC: 3.12385 cumulative IPC: 3.10382 (Simulation time: 0 hr 1 min 19 sec) 
Heartbeat CPU 0 instructions: 40000001 cycles: 12907072 heartbeat IPC: 3.08492 cumulative IPC: 3.09908 (Simulation time: 0 hr 1 min 45 sec) 
Heartbeat CPU 0 instructions: 50000001 cycles: 16147690 heartbeat IPC: 3.08583 cumulative IPC: 3.09642 (Simulation time: 0 hr 2 min 12 sec) 

Warmup complete CPU 0 instructions: 50000001 cycles: 16147690 (Simulation time: 0 hr 2 min 12 sec) 

Heartbeat CPU 0 instructions: 60000000 cycles: 24382868 heartbeat IPC: 1.2143 cumulative IPC: 1.2143 (Simulation time: 0 hr 2 min 35 sec) 
Heartbeat CPU 0 instructions: 70000003 cycles: 32711587 heartbeat IPC: 1.20067 cumulative IPC: 1.20745 (Simulation time: 0 hr 2 min 58 sec) 
Heartbeat CPU 0 instructions: 80000000 cycles: 40862289 heartbeat IPC: 1.22689 cumulative IPC: 1.21386 (Simulation time: 0 hr 3 min 21 sec) 
Heartbeat CPU 0 instructions: 90000001 cycles: 49240049 heartbeat IPC: 1.19364 cumulative IPC: 1.20874 (Simulation time: 0 hr 3 min 44 sec) 
Heartbeat CPU 0 instructions: 100000000 cycles: 57832309 heartbeat IPC: 1.16384 cumulative IPC: 1.19948 (Simulation time: 0 hr 4 min 7 sec) 
Finished CPU 0 instructions: 50000000 cycles: 41684623 cumulative IPC: 1.19948 (Simulation time: 0 hr 4 min 7 sec) 

ChampSim completed all CPUs

Region of Interest Statistics

CPU 0 cumulative IPC: 1.19948 instructions: 50000000 cycles: 41684623
L1D TOTAL     ACCESS:   19856470  HIT:   18751270  MISS:    1105200
L1D LOAD      ACCESS:    7495311  HIT:    7017797  MISS:     477514
L1D RFO       ACCESS:    5127666  HIT:    5047734  MISS:      79932
L1D PREFETCH  ACCESS:    7233493  HIT:    6685739  MISS:     547754
L1D WRITEBACK ACCESS:          0  HIT:          0  MISS:          0
L1D PREFETCH  REQUESTED:    7538928  ISSUED:    7435871  USEFUL:     277532  USELESS:     270234
L1D AVERAGE MISS LATENCY: 25.6377 cycles
L1I TOTAL     ACCESS:   33686154  HIT:   33133625  MISS:     552529
L1I LOAD      ACCESS:    9338781  HIT:    9297834  MISS:      40947
L1I RFO       ACCESS:          0  HIT:          0  MISS:          0
L1I PREFETCH  ACCESS:   24347373  HIT:   23835791  MISS:     511582
L1I WRITEBACK ACCESS:          0  HIT:          0  MISS:          0
L1I PREFETCH  REQUESTED:   30084496  ISSUED:   30084496  USEFUL:     326961  USELESS:     184628
L1I AVERAGE MISS LATENCY: 20.0229 cycles
L2C TOTAL     ACCESS:    2793469  HIT:    2538896  MISS:     254573
L2C LOAD      ACCESS:     481001  HIT:     399199  MISS:      81802
L2C RFO       ACCESS:      75143  HIT:      36688  MISS:      38455
L2C PREFETCH  ACCESS:    1983535  HIT:    1849745  MISS:     133790
L2C WRITEBACK ACCESS:     253790  HIT:     253264  MISS:        526
L2C PREFETCH  REQUESTED:    1910034  ISSUED:    1909691  USEFUL:      31178  USELESS:     102188
L2C AVERAGE MISS LATENCY: 62.8273 cycles
LLC TOTAL     ACCESS:     663345  HIT:     590705  MISS:      72640
LLC LOAD      ACCESS:      81591  HIT:      70559  MISS:      11032
LLC RFO       ACCESS:      38453  HIT:      17778  MISS:      20675
LLC PREFETCH  ACCESS:     450839  HIT:     411019  MISS:      39820
LLC WRITEBACK ACCESS:      92462  HIT:      91349  MISS:       1113
LLC PREFETCH  REQUESTED:          0  ISSUED:          0  USEFUL:      13304  USELESS:      25277
LLC AVERAGE MISS LATENCY: 186.273 cycles
Major fault: 0 Minor fault: 6869
CPU 0 L1I EPI prefetcher final stats
CPU 0 L1D next line prefetcher final stats

DRAM Statistics
 CHANNEL 0
 RQ ROW_BUFFER_HIT:      19557  ROW_BUFFER_MISS:      51964
 DBUS_CONGESTED:      37469
 WQ ROW_BUFFER_HIT:       4573  ROW_BUFFER_MISS:      23141  FULL:          0

 AVG_CONGESTED_CYCLE: 6

CPU 0 Branch Prediction Accuracy: 92.4925% MPKI: 17.6569 Average ROB Occupancy at Mispredict: 59.0336

Branch types
NOT_BRANCH: 38240114 76.4802%
BRANCH_DIRECT_JUMP: 653297 1.30659%
BRANCH_INDIRECT: 37098 0.074196%
BRANCH_CONDITIONAL: 8897822 17.7956%
BRANCH_DIRECT_CALL: 992620 1.98524%
BRANCH_INDIRECT_CALL: 93046 0.186092%
BRANCH_RETURN: 1085674 2.17135%
BRANCH_OTHER: 0 0%

